/*---------------------------------------------------------------------------*\
| =========                 |                                                 |
| \\      /  F ield         | OpenFOAM: The Open Source CFD Toolbox           |
|  \\    /   O peration     | Version:  v2006                                 |
|   \\  /    A nd           | Website:  www.openfoam.com                      |
|    \\/     M anipulation  |                                                 |
\*---------------------------------------------------------------------------*/
Build  : _b45f8f6f58-20200629 OPENFOAM=2006
Arch   : "LSB;label=32;scalar=64"
Exec   : interFoam -parallel
Date   : Dec 17 2020
Time   : 20:16:49
Host   : DESKTOP-NUME4RM
PID    : 11011
I/O    : uncollated
Case   : /mnt/c/Users/moein/OF_DOT_COM/project/cases/sinCos/sinCos
nProcs : 2
Hosts  :
(
    (DESKTOP-NUME4RM 2)
)
Pstream initialized with:
    floatTransfer      : 0
    nProcsSimpleSum    : 0
    commsType          : nonBlocking
    polling iterations : 0
trapFpe: Floating point exception trapping enabled (FOAM_SIGFPE).
fileModificationChecking : Monitoring run-time modified files using timeStampMaster (fileModificationSkew 5, maxFileModificationPolls 20)
allowSystemOperations : Allowing user-supplied system call operations

// * * * * * * * * * * * * * * * * * * * * * * * * * * * * * * * * * * * * * //
Create time

Create mesh for time = 0


PIMPLE: Operating solver in PISO mode

Reading field p_rgh

Reading field U

Reading/calculating face flux field phi

Reading transportProperties

Selecting incompressible transport model Newtonian
Selecting incompressible transport model Newtonian
Selecting turbulence model type laminar
Selecting laminar stress model Stokes

Reading g

Reading hRef
Calculating field g.h

No MRF models present

No finite volume options present
DICPCG:  Solving for pcorr, Initial residual = 0, Final residual = 0, No Iterations 0
time step continuity errors : sum local = 0, global = 0, cumulative = 0
Courant Number mean: 0 max: 0

Starting time loop

--> FOAM Warning : 
    From void Foam::particle::locate(const vector&, const vector*, Foam::label, bool, const Foam::string&)
    in file particle/particle.C at line 485
    Particle initialised with a location outside of the mesh when tracking from centre (0.98 0.02 0.005) of cell 24 to position (1 0.02 0)
--> FOAM Warning : 
    From void Foam::particle::locate(const vector&, const vector*, Foam::label, bool, const Foam::string&)
    in file particle/particle.C at line 485
    Particle initialised with a location outside of the mesh when tracking from centre (1.98 0.02 0.005) of cell 49 to position (2 0.02 0)
--> FOAM Warning : 
    From void Foam::particle::locate(const vector&, const vector*, Foam::label, bool, const Foam::string&)
    in file particle/particle.C at line 485
    Particle initialised with a location outside of the mesh when tracking from centre (2.98 0.02 0.005) of cell 74 to position (3 0.02 0)
--> FOAM Warning : 
    From void Foam::particle::locate(const vector&, const vector*, Foam::label, bool, const Foam::string&)
    in file particle/particle.C at line 485
    Particle initialised with a location outside of the mesh when tracking from centre (4.98 0.02 0.005) of cell 124 to position (5 0.02 0)
--> FOAM Warning : 
    From void Foam::particle::locate(const vector&, const vector*, Foam::label, bool, const Foam::string&)
    in file particle/particle.C at line 485
    Particle initialised with a location outside of the mesh when tracking from centre (9.98 0.02 0.005) of cell 249 to position (10 0.02 0)
--> FOAM Warning : 
    From void Foam::particle::locate(const vector&, const vector*, Foam::label, bool, const Foam::string&)
    in file particle/particle.C at line 485
    Particle initialised with a location outside of the mesh when tracking from centre (9.98 0.02 0.005) of cell 249 to position (10 0.02 0)
--> FOAM Warning : 
    From void Foam::particle::locate(const vector&, const vector*, Foam::label, bool, const Foam::string&)
    in file particle/particle.C at line 485
    Particle initialised with a location outside of the mesh when tracking from centre (9.98 0.02 0.005) of cell 249 to position (10 0.02 0)
--> FOAM Warning : 
    From void Foam::particle::locate(const vector&, const vector*, Foam::label, bool, const Foam::string&)
    in file particle/particle.C at line 485
    Particle initialised with a location outside of the mesh when tracking from centre (9.98 0.02 0.005) of cell 249 to position (10 0.02 0)
--> FOAM Warning : 
    From void Foam::particle::locate(const vector&, const vector*, Foam::label, bool, const Foam::string&)
    in file particle/particle.C at line 485
    Particle initialised with a location outside of the mesh when tracking from centre (9.98 0.02 0.005) of cell 249 to position (10 0.02 0)
--> FOAM Warning : 
    From void Foam::particle::locate(const vector&, const vector*, Foam::label, bool, const Foam::string&)
    in file particle/particle.C at line 485
    Particle initialised with a location outside of the mesh when tracking from centre (9.98 0.02 0.005) of cell 249 to position (10 0.02 0)
--> FOAM Warning : 
    From void Foam::particle::locate(const vector&, const vector*, Foam::label, bool, const Foam::string&)
    in file particle/particle.C at line 485
    Particle initialised with a location outside of the mesh when tracking from centre (9.98 0.02 0.005) of cell 249 to position (10 0.02 0)
--> FOAM Warning : 
    From void Foam::particle::locate(const vector&, const vector*, Foam::label, bool, const Foam::string&)
    in file particle/particle.C at line 485
    Particle initialised with a location outside of the mesh when tracking from centre (9.98 0.02 0.005) of cell 249 to position (10 0.02 0)
--> FOAM Warning : 
    From void Foam::particle::locate(const vector&, const vector*, Foam::label, bool, const Foam::string&)
    in file particle/particle.C at line 485
    Particle initialised with a location outside of the mesh when tracking from centre (9.98 0.02 0.005) of cell 249 to position (10 0.02 0)
--> FOAM Warning : 
    From void Foam::particle::locate(const vector&, const vector*, Foam::label, bool, const Foam::string&)
    in file particle/particle.C at line 485
    Particle initialised with a location outside of the mesh when tracking from centre (9.98 0.02 0.005) of cell 249 to position (10 0.02 0)
--> FOAM Warning : 
    From void Foam::particle::locate(const vector&, const vector*, Foam::label, bool, const Foam::string&)
    in file particle/particle.C at line 485
    Particle initialised with a location outside of the mesh when tracking from centre (9.98 0.02 0.005) of cell 249 to position (10 0.02 0)
--> FOAM Warning : 
    From void Foam::particle::locate(const vector&, const vector*, Foam::label, bool, const Foam::string&)
    in file particle/particle.C at line 485
    Particle initialised with a location outside of the mesh when tracking from centre (9.98 0.02 0.005) of cell 249 to position (10 0.02 0)
--> FOAM Warning : 
    From void Foam::particle::locate(const vector&, const vector*, Foam::label, bool, const Foam::string&)
    in file particle/particle.C at line 485
    Particle initialised with a location outside of the mesh when tracking from centre (9.98 0.02 0.005) of cell 249 to position (10 0.02 0)
--> FOAM Warning : 
    From void Foam::particle::locate(const vector&, const vector*, Foam::label, bool, const Foam::string&)
    in file particle/particle.C at line 485
    Particle initialised with a location outside of the mesh when tracking from centre (9.98 0.02 0.005) of cell 249 to position (10 0.02 0)
--> FOAM Warning : 
    From void Foam::particle::locate(const vector&, const vector*, Foam::label, bool, const Foam::string&)
    in file particle/particle.C at line 485
    Particle initialised with a location outside of the mesh when tracking from centre (9.98 0.02 0.005) of cell 249 to position (10 0.02 0)
--> FOAM Warning : 
    From void Foam::particle::locate(const vector&, const vector*, Foam::label, bool, const Foam::string&)
    in file particle/particle.C at line 485
    Particle initialised with a location outside of the mesh when tracking from centre (9.98 0.02 0.005) of cell 249 to position (10 0.02 0)
--> FOAM Warning : 
    From void Foam::particle::locate(const vector&, const vector*, Foam::label, bool, const Foam::string&)
    in file particle/particle.C at line 485
    Particle initialised with a location outside of the mesh when tracking from centre (9.98 0.02 0.005) of cell 249 to position (10 0.02 0)
--> FOAM Warning : 
    From void Foam::particle::locate(const vector&, const vector*, Foam::label, bool, const Foam::string&)
    in file particle/particle.C at line 485
    Particle initialised with a location outside of the mesh when tracking from centre (9.98 0.02 0.005) of cell 249 to position (10 0.02 0)
--> FOAM Warning : 
    From void Foam::particle::locate(const vector&, const vector*, Foam::label, bool, const Foam::string&)
    in file particle/particle.C at line 485
    Particle initialised with a location outside of the mesh when tracking from centre (9.98 0.02 0.005) of cell 249 to position (10 0.02 0)
--> FOAM Warning : 
    From void Foam::particle::locate(const vector&, const vector*, Foam::label, bool, const Foam::string&)
    in file particle/particle.C at line 485
    Particle initialised with a location outside of the mesh when tracking from centre (9.98 0.02 0.005) of cell 249 to position (10 0.02 0)
--> FOAM Warning : 
    From void Foam::particle::locate(const vector&, const vector*, Foam::label, bool, const Foam::string&)
    in file particle/particle.C at line 485
    Particle initialised with a location outside of the mesh when tracking from centre (9.98 0.02 0.005) of cell 249 to position (10 0.02 0)
--> FOAM Warning : 
    From void Foam::particle::locate(const vector&, const vector*, Foam::label, bool, const Foam::string&)
    in file particle/particle.C at line 485
    Particle initialised with a location outside of the mesh when tracking from centre (9.98 0.02 0.005) of cell 249 to position (10 0.02 0)
--> FOAM Warning : 
    From void Foam::particle::locate(const vector&, const vector*, Foam::label, bool, const Foam::string&)
    in file particle/particle.C at line 485
    Particle initialised with a location outside of the mesh when tracking from centre (9.98 0.02 0.005) of cell 249 to position (10 0.02 0)
--> FOAM Warning : 
    From void Foam::particle::locate(const vector&, const vector*, Foam::label, bool, const Foam::string&)
    in file particle/particle.C at line 485
    Particle initialised with a location outside of the mesh when tracking from centre (9.98 0.02 0.005) of cell 249 to position (10 0.02 0)
--> FOAM Warning : 
    From void Foam::particle::locate(const vector&, const vector*, Foam::label, bool, const Foam::string&)
    in file particle/particle.C at line 485
    Particle initialised with a location outside of the mesh when tracking from centre (9.98 0.02 0.005) of cell 249 to position (10 0.02 0)
--> FOAM Warning : 
    From void Foam::particle::locate(const vector&, const vector*, Foam::label, bool, const Foam::string&)
    in file particle/particle.C at line 485
    Particle initialised with a location outside of the mesh when tracking from centre (9.98 0.02 0.005) of cell 249 to position (10 0.02 0)
--> FOAM Warning : 
    From void Foam::particle::locate(const vector&, const vector*, Foam::label, bool, const Foam::string&)
    in file particle/particle.C at line 485
    Particle initialised with a location outside of the mesh when tracking from centre (9.98 0.02 0.005) of cell 249 to position (10 0.02 0)
--> FOAM Warning : 
    From void Foam::particle::locate(const vector&, const vector*, Foam::label, bool, const Foam::string&)
    in file particle/particle.C at line 485
    Particle initialised with a location outside of the mesh when tracking from centre (9.98 0.02 0.005) of cell 249 to position (10 0.02 0)
--> FOAM Warning : 
    From void Foam::particle::locate(const vector&, const vector*, Foam::label, bool, const Foam::string&)
    in file particle/particle.C at line 485
    Particle initialised with a location outside of the mesh when tracking from centre (9.98 0.02 0.005) of cell 249 to position (10 0.02 0)
--> FOAM Warning : 
    From void Foam::particle::locate(const vector&, const vector*, Foam::label, bool, const Foam::string&)
    in file particle/particle.C at line 485
    Particle initialised with a location outside of the mesh when tracking from centre (9.98 0.02 0.005) of cell 249 to position (10 0.02 0)
--> FOAM Warning : 
    From void Foam::particle::locate(const vector&, const vector*, Foam::label, bool, const Foam::string&)
    in file particle/particle.C at line 485
    Particle initialised with a location outside of the mesh when tracking from centre (9.98 0.02 0.005) of cell 249 to position (10 0.02 0)
--> FOAM Warning : 
    From void Foam::particle::locate(const vector&, const vector*, Foam::label, bool, const Foam::string&)
    in file particle/particle.C at line 485
    Particle initialised with a location outside of the mesh when tracking from centre (9.98 0.02 0.005) of cell 249 to position (10 0.02 0)
--> FOAM Warning : 
    From void Foam::particle::locate(const vector&, const vector*, Foam::label, bool, const Foam::string&)
    in file particle/particle.C at line 485
    Particle initialised with a location outside of the mesh when tracking from centre (9.98 0.02 0.005) of cell 249 to position (10 0.02 0)
--> FOAM Warning : 
    From void Foam::particle::locate(const vector&, const vector*, Foam::label, bool, const Foam::string&)
    in file particle/particle.C at line 485
    Particle initialised with a location outside of the mesh when tracking from centre (9.98 0.02 0.005) of cell 249 to position (10 0.02 0)
--> FOAM Warning : 
    From void Foam::particle::locate(const vector&, const vector*, Foam::label, bool, const Foam::string&)
    in file particle/particle.C at line 485
    Particle initialised with a location outside of the mesh when tracking from centre (9.98 0.02 0.005) of cell 249 to position (10 0.02 0)
--> FOAM Warning : 
    From void Foam::particle::locate(const vector&, const vector*, Foam::label, bool, const Foam::string&)
    in file particle/particle.C at line 485
    Particle initialised with a location outside of the mesh when tracking from centre (9.98 0.02 0.005) of cell 249 to position (10 0.02 0)
--> FOAM Warning : 
    From void Foam::particle::locate(const vector&, const vector*, Foam::label, bool, const Foam::string&)
    in file particle/particle.C at line 485
    Particle initialised with a location outside of the mesh when tracking from centre (9.98 0.02 0.005) of cell 249 to position (10 0.02 0)
--> FOAM Warning : 
    From void Foam::particle::locate(const vector&, const vector*, Foam::label, bool, const Foam::string&)
    in file particle/particle.C at line 485
    Particle initialised with a location outside of the mesh when tracking from centre (9.98 0.02 0.005) of cell 249 to position (10 0.02 0)
--> FOAM Warning : 
    From void Foam::particle::locate(const vector&, const vector*, Foam::label, bool, const Foam::string&)
    in file particle/particle.C at line 485
    Particle initialised with a location outside of the mesh when tracking from centre (9.98 0.02 0.005) of cell 249 to position (10 0.02 0)
--> FOAM Warning : 
    From void Foam::particle::locate(const vector&, const vector*, Foam::label, bool, const Foam::string&)
    in file particle/particle.C at line 485
    Particle initialised with a location outside of the mesh when tracking from centre (9.98 0.02 0.005) of cell 249 to position (10 0.02 0)
--> FOAM Warning : 
    From void Foam::particle::locate(const vector&, const vector*, Foam::label, bool, const Foam::string&)
    in file particle/particle.C at line 485
    Particle initialised with a location outside of the mesh when tracking from centre (9.98 0.02 0.005) of cell 249 to position (10 0.02 0)
--> FOAM Warning : 
    From void Foam::particle::locate(const vector&, const vector*, Foam::label, bool, const Foam::string&)
    in file particle/particle.C at line 485
    Particle initialised with a location outside of the mesh when tracking from centre (9.98 0.02 0.005) of cell 249 to position (10 0.02 0)
--> FOAM Warning : 
    From void Foam::particle::locate(const vector&, const vector*, Foam::label, bool, const Foam::string&)
    in file particle/particle.C at line 485
    Particle initialised with a location outside of the mesh when tracking from centre (9.98 0.02 0.005) of cell 249 to position (10 0.02 0)
--> FOAM Warning : 
    From void Foam::particle::locate(const vector&, const vector*, Foam::label, bool, const Foam::string&)
    in file particle/particle.C at line 485
    Particle initialised with a location outside of the mesh when tracking from centre (9.98 0.02 0.005) of cell 249 to position (10 0.02 0)
--> FOAM Warning : 
    From void Foam::particle::locate(const vector&, const vector*, Foam::label, bool, const Foam::string&)
    in file particle/particle.C at line 485
    Particle initialised with a location outside of the mesh when tracking from centre (9.98 0.02 0.005) of cell 249 to position (10 0.02 0)
--> FOAM Warning : 
    From void Foam::particle::locate(const vector&, const vector*, Foam::label, bool, const Foam::string&)
    in file particle/particle.C at line 485
    Particle initialised with a location outside of the mesh when tracking from centre (9.98 0.02 0.005) of cell 249 to position (10 0.02 0)
--> FOAM Warning : 
    From void Foam::particle::locate(const vector&, const vector*, Foam::label, bool, const Foam::string&)
    in file particle/particle.C at line 485
    Particle initialised with a location outside of the mesh when tracking from centre (9.98 0.02 0.005) of cell 249 to position (10 0.02 0)
--> FOAM Warning : 
    From void Foam::particle::locate(const vector&, const vector*, Foam::label, bool, const Foam::string&)
    in file particle/particle.C at line 485
    Particle initialised with a location outside of the mesh when tracking from centre (9.98 0.02 0.005) of cell 249 to position (10 0.02 0)
--> FOAM Warning : 
    From void Foam::particle::locate(const vector&, const vector*, Foam::label, bool, const Foam::string&)
    in file particle/particle.C at line 485
    Particle initialised with a location outside of the mesh when tracking from centre (9.98 0.02 0.005) of cell 249 to position (10 0.02 0)
--> FOAM Warning : 
    From void Foam::particle::locate(const vector&, const vector*, Foam::label, bool, const Foam::string&)
    in file particle/particle.C at line 485
    Particle initialised with a location outside of the mesh when tracking from centre (9.98 0.02 0.005) of cell 249 to position (10 0.02 0)
--> FOAM Warning : 
    From void Foam::particle::locate(const vector&, const vector*, Foam::label, bool, const Foam::string&)
    in file particle/particle.C at line 485
    Particle initialised with a location outside of the mesh when tracking from centre (9.98 0.02 0.005) of cell 249 to position (10 0.02 0)
--> FOAM Warning : 
    From void Foam::particle::locate(const vector&, const vector*, Foam::label, bool, const Foam::string&)
    in file particle/particle.C at line 485
    Particle initialised with a location outside of the mesh when tracking from centre (9.98 0.02 0.005) of cell 249 to position (10 0.02 0)
--> FOAM Warning : 
    From void Foam::particle::locate(const vector&, const vector*, Foam::label, bool, const Foam::string&)
    in file particle/particle.C at line 485
    Particle initialised with a location outside of the mesh when tracking from centre (9.98 0.02 0.005) of cell 249 to position (10 0.02 0)
--> FOAM Warning : 
    From void Foam::particle::locate(const vector&, const vector*, Foam::label, bool, const Foam::string&)
    in file particle/particle.C at line 485
    Particle initialised with a location outside of the mesh when tracking from centre (9.98 0.02 0.005) of cell 249 to position (10 0.02 0)
--> FOAM Warning : 
    From void Foam::particle::locate(const vector&, const vector*, Foam::label, bool, const Foam::string&)
    in file particle/particle.C at line 485
    Particle initialised with a location outside of the mesh when tracking from centre (9.98 0.02 0.005) of cell 249 to position (10 0.02 0)
--> FOAM Warning : 
    From void Foam::particle::locate(const vector&, const vector*, Foam::label, bool, const Foam::string&)
    in file particle/particle.C at line 485
    Particle initialised with a location outside of the mesh when tracking from centre (9.98 0.02 0.005) of cell 249 to position (10 0.02 0)
--> FOAM Warning : 
    From void Foam::particle::locate(const vector&, const vector*, Foam::label, bool, const Foam::string&)
    in file particle/particle.C at line 485
    Particle initialised with a location outside of the mesh when tracking from centre (9.98 0.02 0.005) of cell 249 to position (10 0.02 0)
--> FOAM Warning : 
    From void Foam::particle::locate(const vector&, const vector*, Foam::label, bool, const Foam::string&)
    in file particle/particle.C at line 485
    Particle initialised with a location outside of the mesh when tracking from centre (9.98 0.02 0.005) of cell 249 to position (10 0.02 0)
--> FOAM Warning : 
    From void Foam::particle::locate(const vector&, const vector*, Foam::label, bool, const Foam::string&)
    in file particle/particle.C at line 485
    Particle initialised with a location outside of the mesh when tracking from centre (9.98 0.02 0.005) of cell 249 to position (10 0.02 0)
--> FOAM Warning : 
    From void Foam::particle::locate(const vector&, const vector*, Foam::label, bool, const Foam::string&)
    in file particle/particle.C at line 485
    Particle initialised with a location outside of the mesh when tracking from centre (9.98 0.02 0.005) of cell 249 to position (10 0.02 0)
--> FOAM Warning : 
    From void Foam::particle::locate(const vector&, const vector*, Foam::label, bool, const Foam::string&)
    in file particle/particle.C at line 485
    Particle initialised with a location outside of the mesh when tracking from centre (9.98 0.02 0.005) of cell 249 to position (10 0.02 0)
--> FOAM Warning : 
    From void Foam::particle::locate(const vector&, const vector*, Foam::label, bool, const Foam::string&)
    in file particle/particle.C at line 485
    Particle initialised with a location outside of the mesh when tracking from centre (9.98 0.02 0.005) of cell 249 to position (10 0.02 0)
--> FOAM Warning : 
    From void Foam::particle::locate(const vector&, const vector*, Foam::label, bool, const Foam::string&)
    in file particle/particle.C at line 485
    Particle initialised with a location outside of the mesh when tracking from centre (9.98 0.02 0.005) of cell 249 to position (10 0.02 0)
--> FOAM Warning : 
    From void Foam::particle::locate(const vector&, const vector*, Foam::label, bool, const Foam::string&)
    in file particle/particle.C at line 485
    Particle initialised with a location outside of the mesh when tracking from centre (9.98 0.02 0.005) of cell 249 to position (10 0.02 0)
--> FOAM Warning : 
    From void Foam::particle::locate(const vector&, const vector*, Foam::label, bool, const Foam::string&)
    in file particle/particle.C at line 485
    Particle initialised with a location outside of the mesh when tracking from centre (9.98 0.02 0.005) of cell 249 to position (10 0.02 0)
--> FOAM Warning : 
    From void Foam::particle::locate(const vector&, const vector*, Foam::label, bool, const Foam::string&)
    in file particle/particle.C at line 485
    Particle initialised with a location outside of the mesh when tracking from centre (9.98 0.02 0.005) of cell 249 to position (10 0.02 0)
--> FOAM Warning : 
    From void Foam::particle::locate(const vector&, const vector*, Foam::label, bool, const Foam::string&)
    in file particle/particle.C at line 485
    Particle initialised with a location outside of the mesh when tracking from centre (9.98 0.02 0.005) of cell 249 to position (10 0.02 0)
--> FOAM Warning : 
    From void Foam::particle::locate(const vector&, const vector*, Foam::label, bool, const Foam::string&)
    in file particle/particle.C at line 485
    Particle initialised with a location outside of the mesh when tracking from centre (9.98 0.02 0.005) of cell 249 to position (10 0.02 0)
--> FOAM Warning : 
    From void Foam::particle::locate(const vector&, const vector*, Foam::label, bool, const Foam::string&)
    in file particle/particle.C at line 485
    Particle initialised with a location outside of the mesh when tracking from centre (9.98 0.02 0.005) of cell 249 to position (10 0.02 0)
--> FOAM Warning : 
    From void Foam::particle::locate(const vector&, const vector*, Foam::label, bool, const Foam::string&)
    in file particle/particle.C at line 485
    Particle initialised with a location outside of the mesh when tracking from centre (9.98 0.02 0.005) of cell 249 to position (10 0.02 0)
--> FOAM Warning : 
    From void Foam::particle::locate(const vector&, const vector*, Foam::label, bool, const Foam::string&)
    in file particle/particle.C at line 485
    Particle initialised with a location outside of the mesh when tracking from centre (9.98 0.02 0.005) of cell 249 to position (10 0.02 0)
--> FOAM Warning : 
    From void Foam::particle::locate(const vector&, const vector*, Foam::label, bool, const Foam::string&)
    in file particle/particle.C at line 485
    Particle initialised with a location outside of the mesh when tracking from centre (9.98 0.02 0.005) of cell 249 to position (10 0.02 0)
--> FOAM Warning : 
    From void Foam::particle::locate(const vector&, const vector*, Foam::label, bool, const Foam::string&)
    in file particle/particle.C at line 485
    Particle initialised with a location outside of the mesh when tracking from centre (9.98 0.02 0.005) of cell 249 to position (10 0.02 0)
--> FOAM Warning : 
    From void Foam::particle::locate(const vector&, const vector*, Foam::label, bool, const Foam::string&)
    in file particle/particle.C at line 485
    Particle initialised with a location outside of the mesh when tracking from centre (9.98 0.02 0.005) of cell 249 to position (10 0.02 0)
--> FOAM Warning : 
    From void Foam::particle::locate(const vector&, const vector*, Foam::label, bool, const Foam::string&)
    in file particle/particle.C at line 485
    Particle initialised with a location outside of the mesh when tracking from centre (9.98 0.02 0.005) of cell 249 to position (10 0.02 0)
--> FOAM Warning : 
    From void Foam::particle::locate(const vector&, const vector*, Foam::label, bool, const Foam::string&)
    in file particle/particle.C at line 485
    Particle initialised with a location outside of the mesh when tracking from centre (9.98 0.02 0.005) of cell 249 to position (10 0.02 0)
--> FOAM Warning : 
    From void Foam::particle::locate(const vector&, const vector*, Foam::label, bool, const Foam::string&)
    in file particle/particle.C at line 485
    Particle initialised with a location outside of the mesh when tracking from centre (9.98 0.02 0.005) of cell 249 to position (10 0.02 0)
--> FOAM Warning : 
    From void Foam::particle::locate(const vector&, const vector*, Foam::label, bool, const Foam::string&)
    in file particle/particle.C at line 485
    Particle initialised with a location outside of the mesh when tracking from centre (9.98 0.02 0.005) of cell 249 to position (10 0.02 0)
--> FOAM Warning : 
    From void Foam::particle::locate(const vector&, const vector*, Foam::label, bool, const Foam::string&)
    in file particle/particle.C at line 485
    Particle initialised with a location outside of the mesh when tracking from centre (9.98 0.02 0.005) of cell 249 to position (10 0.02 0)
--> FOAM Warning : 
    From void Foam::particle::locate(const vector&, const vector*, Foam::label, bool, const Foam::string&)
    in file particle/particle.C at line 485
    Particle initialised with a location outside of the mesh when tracking from centre (9.98 0.02 0.005) of cell 249 to position (10 0.02 0)
--> FOAM Warning : 
    From void Foam::particle::locate(const vector&, const vector*, Foam::label, bool, const Foam::string&)
    in file particle/particle.C at line 485
    Particle initialised with a location outside of the mesh when tracking from centre (9.98 0.02 0.005) of cell 249 to position (10 0.02 0)
--> FOAM Warning : 
    From void Foam::particle::locate(const vector&, const vector*, Foam::label, bool, const Foam::string&)
    in file particle/particle.C at line 485
    Particle initialised with a location outside of the mesh when tracking from centre (9.98 0.02 0.005) of cell 249 to position (10 0.02 0)
--> FOAM Warning : 
    From void Foam::particle::locate(const vector&, const vector*, Foam::label, bool, const Foam::string&)
    in file particle/particle.C at line 485
    Particle initialised with a location outside of the mesh when tracking from centre (9.98 0.02 0.005) of cell 249 to position (10 0.02 0)
--> FOAM Warning : 
    From void Foam::particle::locate(const vector&, const vector*, Foam::label, bool, const Foam::string&)
    in file particle/particle.C at line 485
    Particle initialised with a location outside of the mesh when tracking from centre (9.98 0.02 0.005) of cell 249 to position (10 0.02 0)
--> FOAM Warning : 
    From void Foam::particle::locate(const vector&, const vector*, Foam::label, bool, const Foam::string&)
    in file particle/particle.C at line 485
    Particle initialised with a location outside of the mesh when tracking from centre (9.98 0.02 0.005) of cell 249 to position (10 0.02 0)
--> FOAM Warning : 
    From void Foam::particle::locate(const vector&, const vector*, Foam::label, bool, const Foam::string&)
    in file particle/particle.C at line 485
    Particle initialised with a location outside of the mesh when tracking from centre (9.98 0.02 0.005) of cell 249 to position (10 0.02 0)
--> FOAM Warning : 
    From void Foam::particle::locate(const vector&, const vector*, Foam::label, bool, const Foam::string&)
    in file particle/particle.C at line 485
    Particle initialised with a location outside of the mesh when tracking from centre (9.98 0.02 0.005) of cell 249 to position (10 0.02 0)
--> FOAM Warning : 
    From void Foam::particle::locate(const vector&, const vector*, Foam::label, bool, const Foam::string&)
    in file particle/particle.C at line 485
    Particle initialised with a location outside of the mesh when tracking from centre (9.98 0.02 0.005) of cell 249 to position (10 0.02 0)
--> FOAM Warning : 
    From void Foam::particle::locate(const vector&, const vector*, Foam::label, bool, const Foam::string&)
    in file particle/particle.C at line 485
    Particle initialised with a location outside of the mesh when tracking from centre (9.98 0.02 0.005) of cell 249 to position (10 0.02 0)
--> FOAM Warning : 
    From void Foam::particle::locate(const vector&, const vector*, Foam::label, bool, const Foam::string&)
    in file particle/particle.C at line 485
    Particle initialised with a location outside of the mesh when tracking from centre (9.98 0.02 0.005) of cell 249 to position (10 0.02 0)
--> FOAM Warning : 
    From void Foam::particle::locate(const vector&, const vector*, Foam::label, bool, const Foam::string&)
    in file particle/particle.C at line 485
    Particle initialised with a location outside of the mesh when tracking from centre (9.98 0.02 0.005) of cell 249 to position (10 0.02 0)
Reading set description:
    line1
    line2
    line3
    line4
    line5
    line6
    line7
    line8

Courant Number mean: 0 max: 0
Interface Courant Number mean: 0 max: 0
deltaT = 0.0125
Time = 0.0125

PIMPLE: iteration 1
Selecting waveModel sinCos
Wave model: patch inlet
    Type : sinCos
    Velocity field name : U
    Phase fraction field name : alpha.water
    Transformation from local to global system : (1 -0 -0 0 1 0 -0 -0 1)
    Number of paddles: 1
    Reference water depth : 0.6
    Active absorption: 1
    Ramp time : 2
    Wave height : 0.1
    Wave angle  : 0
    Wave period : 2
    Wave length : 4.36198
    Wave phase : 4.71239
    Wave type: Intermediate
Updating sinCos wave model for patch inlet
MULES: Solving for alpha.water
Phase-1 volume fraction = 0.8  Min(alpha.water) = 0  Max(alpha.water) = 1
Updating sinCos wave model for patch inlet
MULES: Solving for alpha.water
Phase-1 volume fraction = 0.8  Min(alpha.water) = 0  Max(alpha.water) = 1
Updating sinCos wave model for patch inlet
MULES: Solving for alpha.water
Phase-1 volume fraction = 0.8  Min(alpha.water) = 0  Max(alpha.water) = 1
Updating sinCos wave model for patch inlet
Selecting waveModel shallowWaterAbsorption
Wave model: patch outlet
    Type : shallowWaterAbsorption
    Velocity field name : U
    Phase fraction field name : alpha.water
    Transformation from local to global system : (-1 -0 -0 0 -1 0 -0 -0 1)
    Number of paddles: 1
    Reference water depth : 0.6
    Active absorption: 1
Updating shallowWaterAbsorption wave model for patch outlet
DICPCG:  Solving for p_rgh, Initial residual = 1, Final residual = 0.000891372, No Iterations 1
time step continuity errors : sum local = 0.102591, global = -0.000980736, cumulative = -0.000980736
GAMG:  Solving for p_rgh, Initial residual = 0.000402767, Final residual = 7.57873e-08, No Iterations 10
time step continuity errors : sum local = 1.93417e-05, global = -1.33248e-05, cumulative = -0.000994061
ExecutionTime = 0.81 s  ClockTime = 2 s

Courant Number mean: 0.000814426 max: 0.00549081
Interface Courant Number mean: 0 max: 0
deltaT = 0.0125
Time = 0.025

PIMPLE: iteration 1
Updating sinCos wave model for patch inlet
MULES: Solving for alpha.water
Phase-1 volume fraction = 0.8  Min(alpha.water) = 0  Max(alpha.water) = 1.00004
Updating sinCos wave model for patch inlet
MULES: Solving for alpha.water
Phase-1 volume fraction = 0.8  Min(alpha.water) = 0  Max(alpha.water) = 1.00007
Updating sinCos wave model for patch inlet
MULES: Solving for alpha.water
Phase-1 volume fraction = 0.799999  Min(alpha.water) = 0  Max(alpha.water) = 1.00011
Updating sinCos wave model for patch inlet
Updating shallowWaterAbsorption wave model for patch outlet
DICPCG:  Solving for p_rgh, Initial residual = 0.000224747, Final residual = 2.3825e-07, No Iterations 1
time step continuity errors : sum local = 0.000147412, global = -2.6787e-05, cumulative = -0.00102085
GAMG:  Solving for p_rgh, Initial residual = 2.39006e-07, Final residual = 3.95386e-08, No Iterations 1
time step continuity errors : sum local = 2.44584e-05, global = -1.06285e-05, cumulative = -0.00103148
ExecutionTime = 0.92 s  ClockTime = 2 s

Courant Number mean: 0.00091602 max: 0.00989914
Interface Courant Number mean: 0 max: 0
deltaT = 0.0125
Time = 0.0375

PIMPLE: iteration 1
Updating sinCos wave model for patch inlet
MULES: Solving for alpha.water
Phase-1 volume fraction = 0.799999  Min(alpha.water) = 0  Max(alpha.water) = 1.0001
Updating sinCos wave model for patch inlet
MULES: Solving for alpha.water
Phase-1 volume fraction = 0.799998  Min(alpha.water) = 0  Max(alpha.water) = 1.00009
Updating sinCos wave model for patch inlet
MULES: Solving for alpha.water
Phase-1 volume fraction = 0.799998  Min(alpha.water) = 0  Max(alpha.water) = 1.00009
Updating sinCos wave model for patch inlet
Updating shallowWaterAbsorption wave model for patch outlet
DICPCG:  Solving for p_rgh, Initial residual = 0.000246949, Final residual = 1.07452e-07, No Iterations 1
time step continuity errors : sum local = 6.65429e-05, global = -8.75914e-06, cumulative = -0.00104024
GAMG:  Solving for p_rgh, Initial residual = 1.07639e-07, Final residual = 2.7032e-08, No Iterations 1
time step continuity errors : sum local = 1.67364e-05, global = -1.02773e-05, cumulative = -0.00105051
ExecutionTime = 1.06 s  ClockTime = 2 s

Courant Number mean: 0.00081999 max: 0.0139748
Interface Courant Number mean: 6.11783e-07 max: 0.0139748
deltaT = 0.0125
Time = 0.05

PIMPLE: iteration 1
Updating sinCos wave model for patch inlet
MULES: Solving for alpha.water
Phase-1 volume fraction = 0.799997  Min(alpha.water) = 0  Max(alpha.water) = 1.0001
Updating sinCos wave model for patch inlet
MULES: Solving for alpha.water
Phase-1 volume fraction = 0.799997  Min(alpha.water) = 0  Max(alpha.water) = 1.00013
Updating sinCos wave model for patch inlet
MULES: Solving for alpha.water
Phase-1 volume fraction = 0.799996  Min(alpha.water) = 0  Max(alpha.water) = 1.00016
Updating sinCos wave model for patch inlet
Updating shallowWaterAbsorption wave model for patch outlet
DICPCG:  Solving for p_rgh, Initial residual = 0.000212053, Final residual = 8.04692e-08, No Iterations 1
time step continuity errors : sum local = 4.98431e-05, global = -9.67256e-06, cumulative = -0.00106019
GAMG:  Solving for p_rgh, Initial residual = 8.06418e-08, Final residual = 8.06418e-08, No Iterations 0
time step continuity errors : sum local = 4.99394e-05, global = -9.66863e-06, cumulative = -0.00106985
ExecutionTime = 1.31 s  ClockTime = 3 s

Courant Number mean: 0.00073294 max: 0.0179914
Interface Courant Number mean: 1.21323e-06 max: 0.0179914
deltaT = 0.0166667
Time = 0.0666667

PIMPLE: iteration 1
Updating sinCos wave model for patch inlet
MULES: Solving for alpha.water
Phase-1 volume fraction = 0.799995  Min(alpha.water) = 0  Max(alpha.water) = 1.00023
Updating sinCos wave model for patch inlet
MULES: Solving for alpha.water
Phase-1 volume fraction = 0.799994  Min(alpha.water) = 0  Max(alpha.water) = 1.00031
Updating sinCos wave model for patch inlet
MULES: Solving for alpha.water
Phase-1 volume fraction = 0.799992  Min(alpha.water) = 0  Max(alpha.water) = 1.00039
Updating sinCos wave model for patch inlet
Updating shallowWaterAbsorption wave model for patch outlet
DICPCG:  Solving for p_rgh, Initial residual = 0.000139732, Final residual = 1.04999e-07, No Iterations 1
time step continuity errors : sum local = 0.000114612, global = -9.58971e-06, cumulative = -0.00107944
GAMG:  Solving for p_rgh, Initial residual = 1.05208e-07, Final residual = 1.05145e-08, No Iterations 1
time step continuity errors : sum local = 1.14755e-05, global = -5.2325e-06, cumulative = -0.00108468
ExecutionTime = 1.48 s  ClockTime = 3 s

Courant Number mean: 0.000645985 max: 0.0303706
Interface Courant Number mean: 3.48486e-06 max: 0.0303706
deltaT = 0.0166667
Time = 0.0833333

PIMPLE: iteration 1
Updating sinCos wave model for patch inlet
MULES: Solving for alpha.water
Phase-1 volume fraction = 0.799991  Min(alpha.water) = 0  Max(alpha.water) = 1.0004
Updating sinCos wave model for patch inlet
MULES: Solving for alpha.water
Phase-1 volume fraction = 0.799989  Min(alpha.water) = 0  Max(alpha.water) = 1.00042
Updating sinCos wave model for patch inlet
MULES: Solving for alpha.water
Phase-1 volume fraction = 0.799988  Min(alpha.water) = 0  Max(alpha.water) = 1.00043
Updating sinCos wave model for patch inlet
Updating shallowWaterAbsorption wave model for patch outlet
DICPCG:  Solving for p_rgh, Initial residual = 0.000149824, Final residual = 5.21951e-08, No Iterations 1
time step continuity errors : sum local = 5.69775e-05, global = 2.57362e-06, cumulative = -0.0010821
GAMG:  Solving for p_rgh, Initial residual = 5.27641e-08, Final residual = 5.27641e-08, No Iterations 0
time step continuity errors : sum local = 5.75895e-05, global = 2.61857e-06, cumulative = -0.00107948
ExecutionTime = 1.53 s  ClockTime = 3 s

Courant Number mean: 0.000475236 max: 0.0344706
Interface Courant Number mean: 2.32715e-06 max: 0.0344706
deltaT = 0.0166667
Time = 0.1

PIMPLE: iteration 1
Updating sinCos wave model for patch inlet
MULES: Solving for alpha.water
Phase-1 volume fraction = 0.799986  Min(alpha.water) = 0  Max(alpha.water) = 1.00038
Updating sinCos wave model for patch inlet
MULES: Solving for alpha.water
Phase-1 volume fraction = 0.799983  Min(alpha.water) = -4.48774e-24  Max(alpha.water) = 1.00048
Updating sinCos wave model for patch inlet
MULES: Solving for alpha.water
Phase-1 volume fraction = 0.799981  Min(alpha.water) = -8.97548e-24  Max(alpha.water) = 1.00067
Updating sinCos wave model for patch inlet
Updating shallowWaterAbsorption wave model for patch outlet
DICPCG:  Solving for p_rgh, Initial residual = 0.000140169, Final residual = 3.09714e-06, No Iterations 1
time step continuity errors : sum local = 0.00319063, global = -3.79605e-05, cumulative = -0.00111744
GAMG:  Solving for p_rgh, Initial residual = 3.10155e-06, Final residual = 2.94523e-08, No Iterations 2
time step continuity errors : sum local = 3.03392e-05, global = -2.06956e-05, cumulative = -0.00113814
ExecutionTime = 1.76 s  ClockTime = 4 s

Courant Number mean: 0.000707357 max: 0.0429442
Interface Courant Number mean: 8.88557e-06 max: 0.0429442
deltaT = 0.0166667
Time = 0.116667

PIMPLE: iteration 1
Updating sinCos wave model for patch inlet
MULES: Solving for alpha.water
Phase-1 volume fraction = 0.799979  Min(alpha.water) = -8.97536e-24  Max(alpha.water) = 1.00052
Updating sinCos wave model for patch inlet
MULES: Solving for alpha.water
Phase-1 volume fraction = 0.799977  Min(alpha.water) = -8.97524e-24  Max(alpha.water) = 1.00042
Updating sinCos wave model for patch inlet
MULES: Solving for alpha.water
Phase-1 volume fraction = 0.799974  Min(alpha.water) = -8.97512e-24  Max(alpha.water) = 1.00041
Updating sinCos wave model for patch inlet
Updating shallowWaterAbsorption wave model for patch outlet
DICPCG:  Solving for p_rgh, Initial residual = 0.000185214, Final residual = 2.47464e-06, No Iterations 1
time step continuity errors : sum local = 0.0024441, global = -7.89131e-05, cumulative = -0.00121705
GAMG:  Solving for p_rgh, Initial residual = 2.47889e-06, Final residual = 1.55356e-08, No Iterations 2
time step continuity errors : sum local = 1.53419e-05, global = -2.93192e-06, cumulative = -0.00121999
ExecutionTime = 1.91 s  ClockTime = 4 s

Courant Number mean: 0.00063124 max: 0.0488167
Interface Courant Number mean: 1.09671e-05 max: 0.0488167
deltaT = 0.0166667
Time = 0.133333

PIMPLE: iteration 1
Updating sinCos wave model for patch inlet
MULES: Solving for alpha.water
Phase-1 volume fraction = 0.799971  Min(alpha.water) = -8.97495e-24  Max(alpha.water) = 1.0004
Updating sinCos wave model for patch inlet
MULES: Solving for alpha.water
Phase-1 volume fraction = 0.799968  Min(alpha.water) = -7.18118e-23  Max(alpha.water) = 1.0004
Updating sinCos wave model for patch inlet
MULES: Solving for alpha.water
Phase-1 volume fraction = 0.799966  Min(alpha.water) = -1.1219e-23  Max(alpha.water) = 1.00039
Updating sinCos wave model for patch inlet
Updating shallowWaterAbsorption wave model for patch outlet
DICPCG:  Solving for p_rgh, Initial residual = 0.000210952, Final residual = 2.37983e-06, No Iterations 1
time step continuity errors : sum local = 0.00227626, global = -2.24674e-05, cumulative = -0.00124245
GAMG:  Solving for p_rgh, Initial residual = 2.38371e-06, Final residual = 1.61037e-08, No Iterations 2
time step continuity errors : sum local = 1.54006e-05, global = -8.96928e-06, cumulative = -0.00125142
ExecutionTime = 1.97 s  ClockTime = 5 s

Courant Number mean: 0.000706982 max: 0.0535884
Interface Courant Number mean: 1.2351e-05 max: 0.0535884
deltaT = 0.0166667
Time = 0.15

PIMPLE: iteration 1
Updating sinCos wave model for patch inlet
MULES: Solving for alpha.water
Phase-1 volume fraction = 0.799962  Min(alpha.water) = -7.18147e-23  Max(alpha.water) = 1.00038
Updating sinCos wave model for patch inlet
MULES: Solving for alpha.water
Phase-1 volume fraction = 0.799959  Min(alpha.water) = -8.97572e-24  Max(alpha.water) = 1.00037
Updating sinCos wave model for patch inlet
MULES: Solving for alpha.water
Phase-1 volume fraction = 0.799956  Min(alpha.water) = -7.18145e-23  Max(alpha.water) = 1.00036
Updating sinCos wave model for patch inlet
Updating shallowWaterAbsorption wave model for patch outlet
DICPCG:  Solving for p_rgh, Initial residual = 0.000198915, Final residual = 1.33666e-06, No Iterations 1
time step continuity errors : sum local = 0.00125768, global = -3.26072e-05, cumulative = -0.00128403
GAMG:  Solving for p_rgh, Initial residual = 1.33925e-06, Final residual = 6.2811e-08, No Iterations 1
time step continuity errors : sum local = 5.909e-05, global = -4.68405e-05, cumulative = -0.00133087
ExecutionTime = 2.16 s  ClockTime = 5 s

Courant Number mean: 0.00122333 max: 0.0562869
Interface Courant Number mean: 1.356e-05 max: 0.0562869
deltaT = 0.0166667
Time = 0.166667

PIMPLE: iteration 1
Updating sinCos wave model for patch inlet
MULES: Solving for alpha.water
Phase-1 volume fraction = 0.799952  Min(alpha.water) = -1.1218e-23  Max(alpha.water) = 1.00028
Updating sinCos wave model for patch inlet
MULES: Solving for alpha.water
Phase-1 volume fraction = 0.799949  Min(alpha.water) = -7.18146e-23  Max(alpha.water) = 1.00028
Updating sinCos wave model for patch inlet
MULES: Solving for alpha.water
Phase-1 volume fraction = 0.799945  Min(alpha.water) = -1.12171e-23  Max(alpha.water) = 1.00028
Updating sinCos wave model for patch inlet
Updating shallowWaterAbsorption wave model for patch outlet
DICPCG:  Solving for p_rgh, Initial residual = 0.00018234, Final residual = 4.70339e-07, No Iterations 1
time step continuity errors : sum local = 0.000439789, global = -8.8373e-05, cumulative = -0.00141924
GAMG:  Solving for p_rgh, Initial residual = 4.72351e-07, Final residual = 5.86768e-08, No Iterations 1
time step continuity errors : sum local = 5.48559e-05, global = -4.8007e-05, cumulative = -0.00146725
ExecutionTime = 2.3 s  ClockTime = 6 s

Courant Number mean: 0.00122348 max: 0.0586168
Interface Courant Number mean: 1.41116e-05 max: 0.0586168
deltaT = 0.0166667
Time = 0.183333

PIMPLE: iteration 1
Updating sinCos wave model for patch inlet
MULES: Solving for alpha.water
Phase-1 volume fraction = 0.799941  Min(alpha.water) = -7.18155e-23  Max(alpha.water) = 1.00028
Updating sinCos wave model for patch inlet
MULES: Solving for alpha.water
Phase-1 volume fraction = 0.799937  Min(alpha.water) = -2.40934e-21  Max(alpha.water) = 1.00028
Updating sinCos wave model for patch inlet
MULES: Solving for alpha.water
Phase-1 volume fraction = 0.799933  Min(alpha.water) = -7.18155e-23  Max(alpha.water) = 1.00028
Updating sinCos wave model for patch inlet
Updating shallowWaterAbsorption wave model for patch outlet
DICPCG:  Solving for p_rgh, Initial residual = 0.000185405, Final residual = 2.78061e-07, No Iterations 1
time step continuity errors : sum local = 0.000260102, global = -3.86895e-05, cumulative = -0.00150594
GAMG:  Solving for p_rgh, Initial residual = 2.79207e-07, Final residual = 2.15421e-08, No Iterations 1
time step continuity errors : sum local = 2.01469e-05, global = -7.09695e-06, cumulative = -0.00151304
ExecutionTime = 2.37 s  ClockTime = 6 s

Courant Number mean: 0.000931388 max: 0.0610118
Interface Courant Number mean: 1.55411e-05 max: 0.06079
deltaT = 0.0166667
Time = 0.2

PIMPLE: iteration 1
Updating sinCos wave model for patch inlet
MULES: Solving for alpha.water
Phase-1 volume fraction = 0.799928  Min(alpha.water) = -4.81868e-21  Max(alpha.water) = 1.00028
Updating sinCos wave model for patch inlet
MULES: Solving for alpha.water
Phase-1 volume fraction = 0.799924  Min(alpha.water) = -9.15549e-20  Max(alpha.water) = 1.00028
Updating sinCos wave model for patch inlet
MULES: Solving for alpha.water
Phase-1 volume fraction = 0.799919  Min(alpha.water) = -9.63371e-21  Max(alpha.water) = 1.00028
Updating sinCos wave model for patch inlet
Updating shallowWaterAbsorption wave model for patch outlet
DICPCG:  Solving for p_rgh, Initial residual = 0.000207032, Final residual = 3.81736e-07, No Iterations 1
time step continuity errors : sum local = 0.000358511, global = 3.84373e-05, cumulative = -0.0014746
GAMG:  Solving for p_rgh, Initial residual = 3.82975e-07, Final residual = 2.50514e-08, No Iterations 1
time step continuity errors : sum local = 2.35222e-05, global = 1.927e-05, cumulative = -0.00145533
ExecutionTime = 2.57 s  ClockTime = 6 s

Courant Number mean: 0.00103147 max: 0.0638399
Interface Courant Number mean: 1.59601e-05 max: 0.0626061
deltaT = 0.0166667
Time = 0.216667

PIMPLE: iteration 1
Updating sinCos wave model for patch inlet
MULES: Solving for alpha.water
Phase-1 volume fraction = 0.799914  Min(alpha.water) = -9.63148e-21  Max(alpha.water) = 1.00028
Updating sinCos wave model for patch inlet
MULES: Solving for alpha.water
Phase-1 volume fraction = 0.79991  Min(alpha.water) = -9.62925e-21  Max(alpha.water) = 1.00028
Updating sinCos wave model for patch inlet
MULES: Solving for alpha.water
Phase-1 volume fraction = 0.799905  Min(alpha.water) = -9.62702e-21  Max(alpha.water) = 1.00028
Updating sinCos wave model for patch inlet
Updating shallowWaterAbsorption wave model for patch outlet
DICPCG:  Solving for p_rgh, Initial residual = 0.000224344, Final residual = 4.11792e-07, No Iterations 1
time step continuity errors : sum local = 0.000388795, global = 4.90296e-05, cumulative = -0.0014063
GAMG:  Solving for p_rgh, Initial residual = 4.13347e-07, Final residual = 2.88621e-08, No Iterations 1
time step continuity errors : sum local = 2.72439e-05, global = 2.33508e-05, cumulative = -0.00138295
ExecutionTime = 2.71 s  ClockTime = 7 s

Courant Number mean: 0.00113478 max: 0.0663558
Interface Courant Number mean: 1.60362e-05 max: 0.0639525
deltaT = 0.0166667
Time = 0.233333

PIMPLE: iteration 1
Updating sinCos wave model for patch inlet
MULES: Solving for alpha.water
Phase-1 volume fraction = 0.799899  Min(alpha.water) = -9.62509e-21  Max(alpha.water) = 1.00029
Updating sinCos wave model for patch inlet
MULES: Solving for alpha.water
Phase-1 volume fraction = 0.799894  Min(alpha.water) = -9.62316e-21  Max(alpha.water) = 1.00029
Updating sinCos wave model for patch inlet
MULES: Solving for alpha.water
Phase-1 volume fraction = 0.799889  Min(alpha.water) = -9.62123e-21  Max(alpha.water) = 1.00029
Updating sinCos wave model for patch inlet
Updating shallowWaterAbsorption wave model for patch outlet
DICPCG:  Solving for p_rgh, Initial residual = 0.000237832, Final residual = 3.67095e-07, No Iterations 1
time step continuity errors : sum local = 0.00034799, global = 3.16157e-05, cumulative = -0.00135133
GAMG:  Solving for p_rgh, Initial residual = 3.68789e-07, Final residual = 2.12859e-08, No Iterations 1
time step continuity errors : sum local = 2.01731e-05, global = 1.71901e-05, cumulative = -0.00133414
ExecutionTime = 2.77 s  ClockTime = 7 s

Courant Number mean: 0.00112434 max: 0.0685388
Interface Courant Number mean: 1.73914e-05 max: 0.0648223
deltaT = 0.0166667
Time = 0.25

PIMPLE: iteration 1
Updating sinCos wave model for patch inlet
MULES: Solving for alpha.water
Phase-1 volume fraction = 0.799883  Min(alpha.water) = -9.61928e-21  Max(alpha.water) = 1.00029
Updating sinCos wave model for patch inlet
MULES: Solving for alpha.water
Phase-1 volume fraction = 0.799877  Min(alpha.water) = -9.61732e-21  Max(alpha.water) = 1.00029
Updating sinCos wave model for patch inlet
MULES: Solving for alpha.water
Phase-1 volume fraction = 0.799871  Min(alpha.water) = -9.61537e-21  Max(alpha.water) = 1.00029
Updating sinCos wave model for patch inlet
Updating shallowWaterAbsorption wave model for patch outlet
DICPCG:  Solving for p_rgh, Initial residual = 0.000249262, Final residual = 2.61204e-07, No Iterations 1
time step continuity errors : sum local = 0.000248552, global = 1.46772e-05, cumulative = -0.00131947
GAMG:  Solving for p_rgh, Initial residual = 2.62931e-07, Final residual = 1.27001e-08, No Iterations 1
time step continuity errors : sum local = 1.20818e-05, global = 1.01229e-05, cumulative = -0.00130934
ExecutionTime = 2.96 s  ClockTime = 7 s

Courant Number mean: 0.00111117 max: 0.0703635
Interface Courant Number mean: 2.0656e-05 max: 0.0703635
deltaT = 0.0166667
Time = 0.266667

PIMPLE: iteration 1
Updating sinCos wave model for patch inlet
MULES: Solving for alpha.water
Phase-1 volume fraction = 0.799865  Min(alpha.water) = -9.61336e-21  Max(alpha.water) = 1.00029
Updating sinCos wave model for patch inlet
MULES: Solving for alpha.water
Phase-1 volume fraction = 0.799859  Min(alpha.water) = -9.61135e-21  Max(alpha.water) = 1.00029
Updating sinCos wave model for patch inlet
MULES: Solving for alpha.water
Phase-1 volume fraction = 0.799853  Min(alpha.water) = -9.60934e-21  Max(alpha.water) = 1.00029
Updating sinCos wave model for patch inlet
Updating shallowWaterAbsorption wave model for patch outlet
DICPCG:  Solving for p_rgh, Initial residual = 0.000262925, Final residual = 2.03346e-07, No Iterations 1
time step continuity errors : sum local = 0.00019378, global = 4.53235e-06, cumulative = -0.00130481
GAMG:  Solving for p_rgh, Initial residual = 2.05188e-07, Final residual = 9.76843e-09, No Iterations 1
time step continuity errors : sum local = 9.30634e-06, global = 4.14797e-06, cumulative = -0.00130066
ExecutionTime = 3.11 s  ClockTime = 8 s

Courant Number mean: 0.0011622 max: 0.0717453
Interface Courant Number mean: 2.20799e-05 max: 0.0717453
deltaT = 0.0166667
Time = 0.283333

PIMPLE: iteration 1
Updating sinCos wave model for patch inlet
MULES: Solving for alpha.water
Phase-1 volume fraction = 0.799846  Min(alpha.water) = -9.6071e-21  Max(alpha.water) = 1.00029
Updating sinCos wave model for patch inlet
MULES: Solving for alpha.water
Phase-1 volume fraction = 0.79984  Min(alpha.water) = -9.60486e-21  Max(alpha.water) = 1.00029
Updating sinCos wave model for patch inlet
MULES: Solving for alpha.water
Phase-1 volume fraction = 0.799833  Min(alpha.water) = -9.60262e-21  Max(alpha.water) = 1.00029
Updating sinCos wave model for patch inlet
Updating shallowWaterAbsorption wave model for patch outlet
DICPCG:  Solving for p_rgh, Initial residual = 0.000282113, Final residual = 3.03687e-07, No Iterations 1
time step continuity errors : sum local = 0.000288552, global = -3.55388e-06, cumulative = -0.00130422
GAMG:  Solving for p_rgh, Initial residual = 3.05755e-07, Final residual = 1.60775e-08, No Iterations 1
time step continuity errors : sum local = 1.52718e-05, global = -3.33343e-06, cumulative = -0.00130755
ExecutionTime = 3.17 s  ClockTime = 8 s

Courant Number mean: 0.00127525 max: 0.0726036
Interface Courant Number mean: 2.50951e-05 max: 0.0726036
deltaT = 0.0166667
Time = 0.3

PIMPLE: iteration 1
Updating sinCos wave model for patch inlet
MULES: Solving for alpha.water
Phase-1 volume fraction = 0.799826  Min(alpha.water) = -9.60005e-21  Max(alpha.water) = 1.00029
Updating sinCos wave model for patch inlet
MULES: Solving for alpha.water
Phase-1 volume fraction = 0.799819  Min(alpha.water) = -9.59748e-21  Max(alpha.water) = 1.00029
Updating sinCos wave model for patch inlet
MULES: Solving for alpha.water
Phase-1 volume fraction = 0.799812  Min(alpha.water) = -9.59492e-21  Max(alpha.water) = 1.00029
Updating sinCos wave model for patch inlet
Updating shallowWaterAbsorption wave model for patch outlet
DICPCG:  Solving for p_rgh, Initial residual = 0.000303747, Final residual = 5.09716e-07, No Iterations 1
time step continuity errors : sum local = 0.000481184, global = -1.54767e-05, cumulative = -0.00132303
GAMG:  Solving for p_rgh, Initial residual = 5.12013e-07, Final residual = 2.84853e-08, No Iterations 1
time step continuity errors : sum local = 2.68826e-05, global = -1.3183e-05, cumulative = -0.00133621
ExecutionTime = 3.35 s  ClockTime = 8 s

Courant Number mean: 0.00144836 max: 0.0724444
Interface Courant Number mean: 2.64422e-05 max: 0.0724444
deltaT = 0.025
Time = 0.325

PIMPLE: iteration 1
Updating sinCos wave model for patch inlet
MULES: Solving for alpha.water
Phase-1 volume fraction = 0.799801  Min(alpha.water) = -9.59049e-21  Max(alpha.water) = 1.00029
Updating sinCos wave model for patch inlet
MULES: Solving for alpha.water
Phase-1 volume fraction = 0.79979  Min(alpha.water) = -9.58605e-21  Max(alpha.water) = 1.00029
Updating sinCos wave model for patch inlet
MULES: Solving for alpha.water
Phase-1 volume fraction = 0.799779  Min(alpha.water) = -9.58163e-21  Max(alpha.water) = 1.00029
Updating sinCos wave model for patch inlet
Updating shallowWaterAbsorption wave model for patch outlet
DICPCG:  Solving for p_rgh, Initial residual = 0.000467758, Final residual = 8.99e-07, No Iterations 1
time step continuity errors : sum local = 0.00187217, global = -6.09706e-05, cumulative = -0.00139718
GAMG:  Solving for p_rgh, Initial residual = 9.04748e-07, Final residual = 5.07994e-08, No Iterations 1
time step continuity errors : sum local = 0.00010574, global = -6.25744e-05, cumulative = -0.00145975
ExecutionTime = 3.54 s  ClockTime = 9 s

Courant Number mean: 0.00283057 max: 0.104046
Interface Courant Number mean: 4.22118e-05 max: 0.103119
deltaT = 0.025
Time = 0.35

PIMPLE: iteration 1
Updating sinCos wave model for patch inlet
MULES: Solving for alpha.water
Phase-1 volume fraction = 0.799767  Min(alpha.water) = -9.57679e-21  Max(alpha.water) = 1.00029
Updating sinCos wave model for patch inlet
MULES: Solving for alpha.water
Phase-1 volume fraction = 0.799755  Min(alpha.water) = -9.57195e-21  Max(alpha.water) = 1.00029
Updating sinCos wave model for patch inlet
MULES: Solving for alpha.water
Phase-1 volume fraction = 0.799744  Min(alpha.water) = -9.56712e-21  Max(alpha.water) = 1.00028
Updating sinCos wave model for patch inlet
Updating shallowWaterAbsorption wave model for patch outlet
DICPCG:  Solving for p_rgh, Initial residual = 0.000465977, Final residual = 9.2312e-07, No Iterations 1
time step continuity errors : sum local = 0.00190164, global = -0.000123116, cumulative = -0.00158287
GAMG:  Solving for p_rgh, Initial residual = 9.29773e-07, Final residual = 6.71613e-08, No Iterations 1
time step continuity errors : sum local = 0.000138289, global = -8.73276e-05, cumulative = -0.0016702
ExecutionTime = 3.78 s  ClockTime = 10 s

Courant Number mean: 0.00318495 max: 0.100761
Interface Courant Number mean: 4.28818e-05 max: 0.0977103
deltaT = 0.025
Time = 0.375

PIMPLE: iteration 1
Updating sinCos wave model for patch inlet
MULES: Solving for alpha.water
Phase-1 volume fraction = 0.799731  Min(alpha.water) = -9.56184e-21  Max(alpha.water) = 1.00028
Updating sinCos wave model for patch inlet
MULES: Solving for alpha.water
Phase-1 volume fraction = 0.799718  Min(alpha.water) = -9.55657e-21  Max(alpha.water) = 1.00028
Updating sinCos wave model for patch inlet
MULES: Solving for alpha.water
Phase-1 volume fraction = 0.799706  Min(alpha.water) = -9.5513e-21  Max(alpha.water) = 1.00028
Updating sinCos wave model for patch inlet
Updating shallowWaterAbsorption wave model for patch outlet
DICPCG:  Solving for p_rgh, Initial residual = 0.000462177, Final residual = 8.17732e-07, No Iterations 1
time step continuity errors : sum local = 0.00167009, global = -0.000121475, cumulative = -0.00179167
GAMG:  Solving for p_rgh, Initial residual = 8.24066e-07, Final residual = 6.06439e-08, No Iterations 1
time step continuity errors : sum local = 0.000123798, global = -7.19907e-05, cumulative = -0.00186366
ExecutionTime = 3.99 s  ClockTime = 10 s

Courant Number mean: 0.00309379 max: 0.0979604
Interface Courant Number mean: 4.65302e-05 max: 0.0930003
deltaT = 0.025
Time = 0.4

PIMPLE: iteration 1
Updating sinCos wave model for patch inlet
MULES: Solving for alpha.water
Phase-1 volume fraction = 0.799692  Min(alpha.water) = -9.54513e-21  Max(alpha.water) = 1.00028
Updating sinCos wave model for patch inlet
MULES: Solving for alpha.water
Phase-1 volume fraction = 0.799679  Min(alpha.water) = -9.53897e-21  Max(alpha.water) = 1.00028
Updating sinCos wave model for patch inlet
MULES: Solving for alpha.water
Phase-1 volume fraction = 0.799666  Min(alpha.water) = -9.53281e-21  Max(alpha.water) = 1.00027
Updating sinCos wave model for patch inlet
Updating shallowWaterAbsorption wave model for patch outlet
DICPCG:  Solving for p_rgh, Initial residual = 0.000460814, Final residual = 6.43083e-07, No Iterations 1
time step continuity errors : sum local = 0.00130718, global = -6.27202e-05, cumulative = -0.00192638
GAMG:  Solving for p_rgh, Initial residual = 6.48614e-07, Final residual = 4.08854e-08, No Iterations 1
time step continuity errors : sum local = 8.30675e-05, global = -3.50503e-05, cumulative = -0.00196143
ExecutionTime = 4.25 s  ClockTime = 11 s

Courant Number mean: 0.00278901 max: 0.094964
Interface Courant Number mean: 5.04528e-05 max: 0.0917128
deltaT = 0.025
Time = 0.425

PIMPLE: iteration 1
Updating sinCos wave model for patch inlet
MULES: Solving for alpha.water
Phase-1 volume fraction = 0.799652  Min(alpha.water) = -9.52556e-21  Max(alpha.water) = 1.00027
Updating sinCos wave model for patch inlet
MULES: Solving for alpha.water
Phase-1 volume fraction = 0.799638  Min(alpha.water) = -9.51831e-21  Max(alpha.water) = 1.00027
Updating sinCos wave model for patch inlet
MULES: Solving for alpha.water
Phase-1 volume fraction = 0.799624  Min(alpha.water) = -9.51107e-21  Max(alpha.water) = 1.00027
Updating sinCos wave model for patch inlet
Updating shallowWaterAbsorption wave model for patch outlet
DICPCG:  Solving for p_rgh, Initial residual = 0.000463506, Final residual = 4.66696e-07, No Iterations 1
time step continuity errors : sum local = 0.000947037, global = -4.39816e-07, cumulative = -0.00196187
GAMG:  Solving for p_rgh, Initial residual = 4.71647e-07, Final residual = 2.67037e-08, No Iterations 1
time step continuity errors : sum local = 5.41618e-05, global = -4.08824e-07, cumulative = -0.00196228
ExecutionTime = 4.44 s  ClockTime = 11 s

Courant Number mean: 0.0025947 max: 0.0914436
Interface Courant Number mean: 5.44432e-05 max: 0.0907571
deltaT = 0.025
Time = 0.45

PIMPLE: iteration 1
Updating sinCos wave model for patch inlet
MULES: Solving for alpha.water
Phase-1 volume fraction = 0.79961  Min(alpha.water) = -9.50277e-21  Max(alpha.water) = 1.00027
Updating sinCos wave model for patch inlet
MULES: Solving for alpha.water
Phase-1 volume fraction = 0.799595  Min(alpha.water) = -9.49448e-21  Max(alpha.water) = 1.00027
Updating sinCos wave model for patch inlet
MULES: Solving for alpha.water
Phase-1 volume fraction = 0.799581  Min(alpha.water) = -9.48619e-21  Max(alpha.water) = 1.00027
Updating sinCos wave model for patch inlet
Updating shallowWaterAbsorption wave model for patch outlet
DICPCG:  Solving for p_rgh, Initial residual = 0.000467384, Final residual = 3.02327e-07, No Iterations 1
time step continuity errors : sum local = 0.000613767, global = 3.7189e-05, cumulative = -0.00192509
GAMG:  Solving for p_rgh, Initial residual = 3.07018e-07, Final residual = 1.86932e-08, No Iterations 1
time step continuity errors : sum local = 3.7931e-05, global = 2.51152e-05, cumulative = -0.00189998
ExecutionTime = 4.67 s  ClockTime = 12 s

Courant Number mean: 0.00251433 max: 0.0899762
Interface Courant Number mean: 5.98985e-05 max: 0.0897902
deltaT = 0.025
Time = 0.475

PIMPLE: iteration 1
Updating sinCos wave model for patch inlet
MULES: Solving for alpha.water
Phase-1 volume fraction = 0.799566  Min(alpha.water) = -1.0842e-20  Max(alpha.water) = 1.00027
Updating sinCos wave model for patch inlet
MULES: Solving for alpha.water
Phase-1 volume fraction = 0.799552  Min(alpha.water) = -9.46753e-21  Max(alpha.water) = 1.00027
Updating sinCos wave model for patch inlet
MULES: Solving for alpha.water
Phase-1 volume fraction = 0.799537  Min(alpha.water) = -9.45821e-21  Max(alpha.water) = 1.00027
Updating sinCos wave model for patch inlet
Updating shallowWaterAbsorption wave model for patch outlet
DICPCG:  Solving for p_rgh, Initial residual = 0.000475216, Final residual = 2.90198e-07, No Iterations 1
time step continuity errors : sum local = 0.000589817, global = 5.70543e-05, cumulative = -0.00184292
GAMG:  Solving for p_rgh, Initial residual = 2.9489e-07, Final residual = 2.23012e-08, No Iterations 1
time step continuity errors : sum local = 4.53035e-05, global = 4.03484e-05, cumulative = -0.00180258
ExecutionTime = 4.87 s  ClockTime = 13 s

Courant Number mean: 0.00261854 max: 0.0877542
Interface Courant Number mean: 9.62617e-05 max: 0.0876442
deltaT = 0.025
Time = 0.5

PIMPLE: iteration 1
Updating sinCos wave model for patch inlet
MULES: Solving for alpha.water
Phase-1 volume fraction = 0.799522  Min(alpha.water) = -9.44771e-21  Max(alpha.water) = 1.00027
Updating sinCos wave model for patch inlet
MULES: Solving for alpha.water
Phase-1 volume fraction = 0.799507  Min(alpha.water) = -9.43723e-21  Max(alpha.water) = 1.00027
Updating sinCos wave model for patch inlet
MULES: Solving for alpha.water
Phase-1 volume fraction = 0.799493  Min(alpha.water) = -9.42675e-21  Max(alpha.water) = 1.00027
Updating sinCos wave model for patch inlet
Updating shallowWaterAbsorption wave model for patch outlet
DICPCG:  Solving for p_rgh, Initial residual = 0.0004813, Final residual = 3.41291e-07, No Iterations 1
time step continuity errors : sum local = 0.00069465, global = 6.33839e-05, cumulative = -0.00173919
GAMG:  Solving for p_rgh, Initial residual = 3.46118e-07, Final residual = 2.51416e-08, No Iterations 1
time step continuity errors : sum local = 5.11459e-05, global = 4.63282e-05, cumulative = -0.00169286
ExecutionTime = 5.08 s  ClockTime = 13 s

Courant Number mean: 0.00272432 max: 0.0850397
Interface Courant Number mean: 0.00013152 max: 0.0847967
deltaT = 0.025
Time = 0.525

PIMPLE: iteration 1
Updating sinCos wave model for patch inlet
MULES: Solving for alpha.water
Phase-1 volume fraction = 0.799478  Min(alpha.water) = -9.4148e-21  Max(alpha.water) = 1.00027
Updating sinCos wave model for patch inlet
MULES: Solving for alpha.water
Phase-1 volume fraction = 0.799463  Min(alpha.water) = -9.40286e-21  Max(alpha.water) = 1.00028
Updating sinCos wave model for patch inlet
MULES: Solving for alpha.water
Phase-1 volume fraction = 0.799448  Min(alpha.water) = -9.39094e-21  Max(alpha.water) = 1.00028
Updating sinCos wave model for patch inlet
Updating shallowWaterAbsorption wave model for patch outlet
DICPCG:  Solving for p_rgh, Initial residual = 0.000482919, Final residual = 3.62267e-07, No Iterations 1
time step continuity errors : sum local = 0.000737701, global = 6.08702e-05, cumulative = -0.00163199
GAMG:  Solving for p_rgh, Initial residual = 3.67027e-07, Final residual = 2.52143e-08, No Iterations 1
time step continuity errors : sum local = 5.13187e-05, global = 4.63983e-05, cumulative = -0.00158559
ExecutionTime = 5.23 s  ClockTime = 14 s

Courant Number mean: 0.00278146 max: 0.0822752
Interface Courant Number mean: 0.000153709 max: 0.0820367
deltaT = 0.025
Time = 0.55

PIMPLE: iteration 1
Updating sinCos wave model for patch inlet
MULES: Solving for alpha.water
Phase-1 volume fraction = 0.799433  Min(alpha.water) = -9.37718e-21  Max(alpha.water) = 1.00028
Updating sinCos wave model for patch inlet
MULES: Solving for alpha.water
Phase-1 volume fraction = 0.799419  Min(alpha.water) = -5.51454e-20  Max(alpha.water) = 1.00028
Updating sinCos wave model for patch inlet
MULES: Solving for alpha.water
Phase-1 volume fraction = 0.799404  Min(alpha.water) = -9.34972e-21  Max(alpha.water) = 1.00028
Updating sinCos wave model for patch inlet
Updating shallowWaterAbsorption wave model for patch outlet
DICPCG:  Solving for p_rgh, Initial residual = 0.000480727, Final residual = 3.58699e-07, No Iterations 1
time step continuity errors : sum local = 0.000730917, global = 5.4879e-05, cumulative = -0.00153072
GAMG:  Solving for p_rgh, Initial residual = 3.63313e-07, Final residual = 2.3897e-08, No Iterations 1
time step continuity errors : sum local = 4.86697e-05, global = 4.2981e-05, cumulative = -0.00148773
ExecutionTime = 5.45 s  ClockTime = 14 s

Courant Number mean: 0.00280851 max: 0.0794115
Interface Courant Number mean: 0.000162583 max: 0.0790781
deltaT = 0.025
Time = 0.575

PIMPLE: iteration 1
Updating sinCos wave model for patch inlet
MULES: Solving for alpha.water
Phase-1 volume fraction = 0.79939  Min(alpha.water) = -9.33379e-21  Max(alpha.water) = 1.00028
Updating sinCos wave model for patch inlet
MULES: Solving for alpha.water
Phase-1 volume fraction = 0.799375  Min(alpha.water) = -9.31788e-21  Max(alpha.water) = 1.00028
Updating sinCos wave model for patch inlet
MULES: Solving for alpha.water
Phase-1 volume fraction = 0.799361  Min(alpha.water) = -9.30201e-21  Max(alpha.water) = 1.00028
Updating sinCos wave model for patch inlet
Updating shallowWaterAbsorption wave model for patch outlet
DICPCG:  Solving for p_rgh, Initial residual = 0.000479532, Final residual = 3.31183e-07, No Iterations 1
time step continuity errors : sum local = 0.000675078, global = 4.67156e-05, cumulative = -0.00144102
GAMG:  Solving for p_rgh, Initial residual = 3.3549e-07, Final residual = 2.16289e-08, No Iterations 1
time step continuity errors : sum local = 4.40659e-05, global = 3.70024e-05, cumulative = -0.00140402
ExecutionTime = 5.58 s  ClockTime = 15 s

Courant Number mean: 0.0028269 max: 0.0762983
Interface Courant Number mean: 0.0001717 max: 0.0758729
deltaT = 0.025
Time = 0.6

PIMPLE: iteration 1
Updating sinCos wave model for patch inlet
MULES: Solving for alpha.water
Phase-1 volume fraction = 0.799347  Min(alpha.water) = -9.28372e-21  Max(alpha.water) = 1.00028
Updating sinCos wave model for patch inlet
MULES: Solving for alpha.water
Phase-1 volume fraction = 0.799333  Min(alpha.water) = -9.26548e-21  Max(alpha.water) = 1.00028
Updating sinCos wave model for patch inlet
MULES: Solving for alpha.water
Phase-1 volume fraction = 0.799319  Min(alpha.water) = -9.24727e-21  Max(alpha.water) = 1.00028
Updating sinCos wave model for patch inlet
Updating shallowWaterAbsorption wave model for patch outlet
DICPCG:  Solving for p_rgh, Initial residual = 0.000480579, Final residual = 2.99061e-07, No Iterations 1
time step continuity errors : sum local = 0.000609549, global = 3.63206e-05, cumulative = -0.0013677
GAMG:  Solving for p_rgh, Initial residual = 3.03036e-07, Final residual = 1.88998e-08, No Iterations 1
time step continuity errors : sum local = 3.85025e-05, global = 2.92646e-05, cumulative = -0.00133843
ExecutionTime = 5.78 s  ClockTime = 15 s

Courant Number mean: 0.0028737 max: 0.0753042
Interface Courant Number mean: 0.00018345 max: 0.0753042
deltaT = 0.025
Time = 0.625

PIMPLE: iteration 1
Updating sinCos wave model for patch inlet
MULES: Solving for alpha.water
Phase-1 volume fraction = 0.799306  Min(alpha.water) = -5.50918e-20  Max(alpha.water) = 1.0003
Updating sinCos wave model for patch inlet
MULES: Solving for alpha.water
Phase-1 volume fraction = 0.799293  Min(alpha.water) = -9.20578e-21  Max(alpha.water) = 1.00033
Updating sinCos wave model for patch inlet
MULES: Solving for alpha.water
Phase-1 volume fraction = 0.79928  Min(alpha.water) = -9.18511e-21  Max(alpha.water) = 1.00037
Updating sinCos wave model for patch inlet
Updating shallowWaterAbsorption wave model for patch outlet
DICPCG:  Solving for p_rgh, Initial residual = 0.000486034, Final residual = 2.98347e-07, No Iterations 1
time step continuity errors : sum local = 0.000607588, global = 2.50089e-05, cumulative = -0.00131342
GAMG:  Solving for p_rgh, Initial residual = 3.02298e-07, Final residual = 1.83672e-08, No Iterations 1
time step continuity errors : sum local = 3.7387e-05, global = 2.13127e-05, cumulative = -0.00129211
ExecutionTime = 5.92 s  ClockTime = 16 s

Courant Number mean: 0.00296409 max: 0.0945383
Interface Courant Number mean: 0.000197193 max: 0.0945383
deltaT = 0.025
Time = 0.65

PIMPLE: iteration 1
Updating sinCos wave model for patch inlet
MULES: Solving for alpha.water
Phase-1 volume fraction = 0.799268  Min(alpha.water) = -9.16182e-21  Max(alpha.water) = 1.0004
Updating sinCos wave model for patch inlet
MULES: Solving for alpha.water
Phase-1 volume fraction = 0.799256  Min(alpha.water) = -9.1386e-21  Max(alpha.water) = 1.00043
Updating sinCos wave model for patch inlet
MULES: Solving for alpha.water
Phase-1 volume fraction = 0.799243  Min(alpha.water) = -9.11543e-21  Max(alpha.water) = 1.00046
Updating sinCos wave model for patch inlet
Updating shallowWaterAbsorption wave model for patch outlet
DICPCG:  Solving for p_rgh, Initial residual = 0.000497106, Final residual = 3.52158e-07, No Iterations 1
time step continuity errors : sum local = 0.000715932, global = 1.4757e-05, cumulative = -0.00127735
GAMG:  Solving for p_rgh, Initial residual = 3.56398e-07, Final residual = 2.16679e-08, No Iterations 1
time step continuity errors : sum local = 4.40301e-05, global = 1.32593e-05, cumulative = -0.00126409
ExecutionTime = 6.11 s  ClockTime = 16 s

Courant Number mean: 0.00308734 max: 0.11143
Interface Courant Number mean: 0.000220279 max: 0.11143
deltaT = 0.025
Time = 0.675

PIMPLE: iteration 1
Updating sinCos wave model for patch inlet
MULES: Solving for alpha.water
Phase-1 volume fraction = 0.799232  Min(alpha.water) = -9.08966e-21  Max(alpha.water) = 1.00048
Updating sinCos wave model for patch inlet
MULES: Solving for alpha.water
Phase-1 volume fraction = 0.799221  Min(alpha.water) = -9.06396e-21  Max(alpha.water) = 1.0005
Updating sinCos wave model for patch inlet
MULES: Solving for alpha.water
Phase-1 volume fraction = 0.799209  Min(alpha.water) = -9.03833e-21  Max(alpha.water) = 1.00052
Updating sinCos wave model for patch inlet
Updating shallowWaterAbsorption wave model for patch outlet
DICPCG:  Solving for p_rgh, Initial residual = 0.000512263, Final residual = 4.11169e-07, No Iterations 1
time step continuity errors : sum local = 0.000833855, global = 4.58497e-06, cumulative = -0.00125951
GAMG:  Solving for p_rgh, Initial residual = 4.158e-07, Final residual = 2.60014e-08, No Iterations 1
time step continuity errors : sum local = 5.2708e-05, global = 5.29857e-06, cumulative = -0.00125421
ExecutionTime = 6.26 s  ClockTime = 17 s

Courant Number mean: 0.00324326 max: 0.125172
Interface Courant Number mean: 0.000236778 max: 0.125172
deltaT = 0.025
Time = 0.7

PIMPLE: iteration 1
Updating sinCos wave model for patch inlet
MULES: Solving for alpha.water
Phase-1 volume fraction = 0.799199  Min(alpha.water) = -9.01008e-21  Max(alpha.water) = 1.00054
Updating sinCos wave model for patch inlet
MULES: Solving for alpha.water
Phase-1 volume fraction = 0.799189  Min(alpha.water) = -2.20668e-19  Max(alpha.water) = 1.00055
Updating sinCos wave model for patch inlet
MULES: Solving for alpha.water
Phase-1 volume fraction = 0.799179  Min(alpha.water) = -2.75727e-20  Max(alpha.water) = 1.00057
Updating sinCos wave model for patch inlet
Updating shallowWaterAbsorption wave model for patch outlet
DICPCG:  Solving for p_rgh, Initial residual = 0.000531502, Final residual = 4.45385e-07, No Iterations 1
time step continuity errors : sum local = 0.00090107, global = -3.92861e-06, cumulative = -0.00125814
GAMG:  Solving for p_rgh, Initial residual = 4.50495e-07, Final residual = 2.89922e-08, No Iterations 1
time step continuity errors : sum local = 5.86311e-05, global = -4.62558e-07, cumulative = -0.0012586
ExecutionTime = 6.46 s  ClockTime = 17 s

Courant Number mean: 0.00340114 max: 0.135659
Interface Courant Number mean: 0.000261127 max: 0.135659
deltaT = 0.025
Time = 0.725

PIMPLE: iteration 1
Updating sinCos wave model for patch inlet
MULES: Solving for alpha.water
Phase-1 volume fraction = 0.79917  Min(alpha.water) = -2.7442e-20  Max(alpha.water) = 1.00059
Updating sinCos wave model for patch inlet
MULES: Solving for alpha.water
Phase-1 volume fraction = 0.799161  Min(alpha.water) = -8.89233e-21  Max(alpha.water) = 1.00061
Updating sinCos wave model for patch inlet
MULES: Solving for alpha.water
Phase-1 volume fraction = 0.799152  Min(alpha.water) = -2.75732e-20  Max(alpha.water) = 1.00063
Updating sinCos wave model for patch inlet
Updating shallowWaterAbsorption wave model for patch outlet
DICPCG:  Solving for p_rgh, Initial residual = 0.000554282, Final residual = 4.52386e-07, No Iterations 1
time step continuity errors : sum local = 0.000913498, global = -8.03097e-06, cumulative = -0.00126663
GAMG:  Solving for p_rgh, Initial residual = 4.57932e-07, Final residual = 2.93266e-08, No Iterations 1
time step continuity errors : sum local = 5.91972e-05, global = -2.74894e-06, cumulative = -0.00126938
ExecutionTime = 6.62 s  ClockTime = 18 s

Courant Number mean: 0.00354156 max: 0.145211
Interface Courant Number mean: 0.000280157 max: 0.145211
deltaT = 0.025
Time = 0.75

PIMPLE: iteration 1
Updating sinCos wave model for patch inlet
MULES: Solving for alpha.water
Phase-1 volume fraction = 0.799144  Min(alpha.water) = -4.39725e-19  Max(alpha.water) = 1.00066
Updating sinCos wave model for patch inlet
MULES: Solving for alpha.water
Phase-1 volume fraction = 0.799136  Min(alpha.water) = -4.32093e-19  Max(alpha.water) = 1.0007
Updating sinCos wave model for patch inlet
MULES: Solving for alpha.water
Phase-1 volume fraction = 0.799129  Min(alpha.water) = -4.24746e-19  Max(alpha.water) = 1.00073
Updating sinCos wave model for patch inlet
Updating shallowWaterAbsorption wave model for patch outlet
DICPCG:  Solving for p_rgh, Initial residual = 0.000585988, Final residual = 4.38859e-07, No Iterations 1
time step continuity errors : sum local = 0.000885155, global = -6.00624e-06, cumulative = -0.00127539
GAMG:  Solving for p_rgh, Initial residual = 4.44882e-07, Final residual = 2.71751e-08, No Iterations 1
time step continuity errors : sum local = 5.47932e-05, global = -1.24102e-06, cumulative = -0.00127663
ExecutionTime = 6.83 s  ClockTime = 18 s

Courant Number mean: 0.00367687 max: 0.154495
Interface Courant Number mean: 0.000306083 max: 0.154495
deltaT = 0.025
Time = 0.775

PIMPLE: iteration 1
Updating sinCos wave model for patch inlet
MULES: Solving for alpha.water
Phase-1 volume fraction = 0.799123  Min(alpha.water) = -4.16611e-19  Max(alpha.water) = 1.00078
Updating sinCos wave model for patch inlet
MULES: Solving for alpha.water
Phase-1 volume fraction = 0.799117  Min(alpha.water) = -4.08846e-19  Max(alpha.water) = 1.00082
Updating sinCos wave model for patch inlet
MULES: Solving for alpha.water
Phase-1 volume fraction = 0.799111  Min(alpha.water) = -4.01445e-19  Max(alpha.water) = 1.00087
Updating sinCos wave model for patch inlet
Updating shallowWaterAbsorption wave model for patch outlet
DICPCG:  Solving for p_rgh, Initial residual = 0.000625391, Final residual = 4.13523e-07, No Iterations 1
time step continuity errors : sum local = 0.000833793, global = -1.91716e-07, cumulative = -0.00127682
GAMG:  Solving for p_rgh, Initial residual = 4.19925e-07, Final residual = 2.41048e-08, No Iterations 1
time step continuity errors : sum local = 4.85896e-05, global = 1.97283e-06, cumulative = -0.00127485
ExecutionTime = 7.03 s  ClockTime = 19 s

Courant Number mean: 0.00383638 max: 0.164222
Interface Courant Number mean: 0.000329737 max: 0.160835
deltaT = 0.025
Time = 0.8

PIMPLE: iteration 1
Updating sinCos wave model for patch inlet
MULES: Solving for alpha.water
Phase-1 volume fraction = 0.799107  Min(alpha.water) = -3.93728e-19  Max(alpha.water) = 1.00093
Updating sinCos wave model for patch inlet
MULES: Solving for alpha.water
Phase-1 volume fraction = 0.799103  Min(alpha.water) = -8.82533e-19  Max(alpha.water) = 1.00099
Updating sinCos wave model for patch inlet
MULES: Solving for alpha.water
Phase-1 volume fraction = 0.799099  Min(alpha.water) = -3.79861e-19  Max(alpha.water) = 1.00105
Updating sinCos wave model for patch inlet
Updating shallowWaterAbsorption wave model for patch outlet
DICPCG:  Solving for p_rgh, Initial residual = 0.000641884, Final residual = 4.00947e-07, No Iterations 1
time step continuity errors : sum local = 0.000808465, global = 5.11637e-06, cumulative = -0.00126973
GAMG:  Solving for p_rgh, Initial residual = 4.08851e-07, Final residual = 2.23603e-08, No Iterations 1
time step continuity errors : sum local = 4.50758e-05, global = 4.2969e-06, cumulative = -0.00126543
ExecutionTime = 7.29 s  ClockTime = 19 s

Courant Number mean: 0.00401806 max: 0.17874
[...]
DICPCG:  Solving for p_rgh, Initial residual = 0.0010046, Final residual = 1.24458e-05, No Iterations 1
time step continuity errors : sum local = 1.25843e-05, global = 1.71148e-07, cumulative = 0.144334
GAMG:  Solving for p_rgh, Initial residual = 1.33291e-05, Final residual = 4.65293e-08, No Iterations 3
time step continuity errors : sum local = 4.70387e-08, global = 4.07112e-08, cumulative = 0.144334
ExecutionTime = 251.02 s  ClockTime = 446 s

Courant Number mean: 0.00576163 max: 0.710717
Interface Courant Number mean: 0.000227137 max: 0.0242682
deltaT = 0.000550607
Time = 12.6802

PIMPLE: iteration 1
Updating sinCos wave model for patch inlet
MULES: Solving for alpha.water
Phase-1 volume fraction = 0.795977  Min(alpha.water) = -5.27871e-07  Max(alpha.water) = 1.08075
Updating sinCos wave model for patch inlet
MULES: Solving for alpha.water
Phase-1 volume fraction = 0.795975  Min(alpha.water) = -5.27803e-07  Max(alpha.water) = 1.08079
Updating sinCos wave model for patch inlet
MULES: Solving for alpha.water
Phase-1 volume fraction = 0.795974  Min(alpha.water) = -5.27736e-07  Max(alpha.water) = 1.08083
Updating sinCos wave model for patch inlet
Updating shallowWaterAbsorption wave model for patch outlet
DICPCG:  Solving for p_rgh, Initial residual = 0.000920737, Final residual = 9.15741e-06, No Iterations 1
time step continuity errors : sum local = 7.8212e-06, global = 1.21528e-07, cumulative = 0.144334
GAMG:  Solving for p_rgh, Initial residual = 1.05377e-05, Final residual = 4.22096e-08, No Iterations 3
time step continuity errors : sum local = 3.60447e-08, global = 3.15256e-08, cumulative = 0.144334
ExecutionTime = 251.09 s  ClockTime = 446 s

Courant Number mean: 0.00533189 max: 0.712767
Interface Courant Number mean: 0.000208284 max: 0.0224726
deltaT = 0.000508253
Time = 12.6807

PIMPLE: iteration 1
Updating sinCos wave model for patch inlet
MULES: Solving for alpha.water
Phase-1 volume fraction = 0.795972  Min(alpha.water) = -5.27673e-07  Max(alpha.water) = 1.08086
Updating sinCos wave model for patch inlet
MULES: Solving for alpha.water
Phase-1 volume fraction = 0.795971  Min(alpha.water) = -5.27611e-07  Max(alpha.water) = 1.0809
Updating sinCos wave model for patch inlet
MULES: Solving for alpha.water
Phase-1 volume fraction = 0.795969  Min(alpha.water) = -5.27548e-07  Max(alpha.water) = 1.08093
Updating sinCos wave model for patch inlet
Updating shallowWaterAbsorption wave model for patch outlet
DICPCG:  Solving for p_rgh, Initial residual = 0.000850366, Final residual = 7.58154e-06, No Iterations 1
time step continuity errors : sum local = 5.52072e-06, global = 9.36654e-08, cumulative = 0.144334
GAMG:  Solving for p_rgh, Initial residual = 9.15063e-06, Final residual = 3.92153e-08, No Iterations 3
time step continuity errors : sum local = 2.85513e-08, global = 2.51996e-08, cumulative = 0.144334
ExecutionTime = 251.16 s  ClockTime = 446 s

Courant Number mean: 0.00495335 max: 0.689663
Interface Courant Number mean: 0.000192514 max: 0.0209054
deltaT = 0.00048284
Time = 12.6812

PIMPLE: iteration 1
Updating sinCos wave model for patch inlet
MULES: Solving for alpha.water
Phase-1 volume fraction = 0.795968  Min(alpha.water) = -5.27488e-07  Max(alpha.water) = 1.08096
Updating sinCos wave model for patch inlet
MULES: Solving for alpha.water
Phase-1 volume fraction = 0.795967  Min(alpha.water) = -5.27428e-07  Max(alpha.water) = 1.08099
Updating sinCos wave model for patch inlet
MULES: Solving for alpha.water
Phase-1 volume fraction = 0.795965  Min(alpha.water) = -5.27369e-07  Max(alpha.water) = 1.08103
Updating sinCos wave model for patch inlet
Updating shallowWaterAbsorption wave model for patch outlet
DICPCG:  Solving for p_rgh, Initial residual = 0.000808294, Final residual = 7.22285e-06, No Iterations 1
time step continuity errors : sum local = 4.74909e-06, global = 8.05399e-08, cumulative = 0.144334
GAMG:  Solving for p_rgh, Initial residual = 8.97974e-06, Final residual = 3.84548e-08, No Iterations 3
time step continuity errors : sum local = 2.52804e-08, global = 2.21216e-08, cumulative = 0.144334
ExecutionTime = 251.24 s  ClockTime = 446 s

Courant Number mean: 0.00473556 max: 0.684973
Interface Courant Number mean: 0.000184142 max: 0.0200179
deltaT = 0.000459287
Time = 12.6816

PIMPLE: iteration 1
Updating sinCos wave model for patch inlet
MULES: Solving for alpha.water
Phase-1 volume fraction = 0.795964  Min(alpha.water) = -5.27311e-07  Max(alpha.water) = 1.08105
Updating sinCos wave model for patch inlet
MULES: Solving for alpha.water
Phase-1 volume fraction = 0.795963  Min(alpha.water) = -5.27254e-07  Max(alpha.water) = 1.08108
Updating sinCos wave model for patch inlet
MULES: Solving for alpha.water
Phase-1 volume fraction = 0.795961  Min(alpha.water) = -5.27197e-07  Max(alpha.water) = 1.08111
Updating sinCos wave model for patch inlet
Updating shallowWaterAbsorption wave model for patch outlet
DICPCG:  Solving for p_rgh, Initial residual = 0.000771177, Final residual = 6.20245e-06, No Iterations 1
time step continuity errors : sum local = 3.69186e-06, global = 5.81141e-08, cumulative = 0.144334
GAMG:  Solving for p_rgh, Initial residual = 8.03722e-06, Final residual = 3.52664e-08, No Iterations 3
time step continuity errors : sum local = 2.09883e-08, global = 1.82178e-08, cumulative = 0.144334
ExecutionTime = 251.32 s  ClockTime = 446 s

Courant Number mean: 0.00453248 max: 0.68326
Interface Courant Number mean: 0.000175348 max: 0.0191969
deltaT = 0.000437416
Time = 12.6821

PIMPLE: iteration 1
Updating sinCos wave model for patch inlet
MULES: Solving for alpha.water
Phase-1 volume fraction = 0.79596  Min(alpha.water) = -5.27142e-07  Max(alpha.water) = 1.08114
Updating sinCos wave model for patch inlet
MULES: Solving for alpha.water
Phase-1 volume fraction = 0.795959  Min(alpha.water) = -5.27087e-07  Max(alpha.water) = 1.08116
Updating sinCos wave model for patch inlet
MULES: Solving for alpha.water
Phase-1 volume fraction = 0.795957  Min(alpha.water) = -5.27032e-07  Max(alpha.water) = 1.08119
Updating sinCos wave model for patch inlet
Updating shallowWaterAbsorption wave model for patch outlet
DICPCG:  Solving for p_rgh, Initial residual = 0.000731795, Final residual = 6.18943e-06, No Iterations 1
time step continuity errors : sum local = 3.34104e-06, global = 5.04794e-08, cumulative = 0.144334
GAMG:  Solving for p_rgh, Initial residual = 8.1514e-06, Final residual = 3.53722e-08, No Iterations 3
time step continuity errors : sum local = 1.90911e-08, global = 1.62403e-08, cumulative = 0.144334
ExecutionTime = 251.4 s  ClockTime = 446 s

Courant Number mean: 0.00434151 max: 0.668275
Interface Courant Number mean: 0.000166893 max: 0.0184359
deltaT = 0.000427002
Time = 12.6825

PIMPLE: iteration 1
Updating sinCos wave model for patch inlet
MULES: Solving for alpha.water
Phase-1 volume fraction = 0.795956  Min(alpha.water) = -5.26978e-07  Max(alpha.water) = 1.08121
Updating sinCos wave model for patch inlet
MULES: Solving for alpha.water
Phase-1 volume fraction = 0.795955  Min(alpha.water) = -5.26925e-07  Max(alpha.water) = 1.08124
Updating sinCos wave model for patch inlet
MULES: Solving for alpha.water
Phase-1 volume fraction = 0.795954  Min(alpha.water) = -5.26871e-07  Max(alpha.water) = 1.08126
Updating sinCos wave model for patch inlet
Updating shallowWaterAbsorption wave model for patch outlet
DICPCG:  Solving for p_rgh, Initial residual = 0.000714593, Final residual = 5.44799e-06, No Iterations 1
time step continuity errors : sum local = 2.80318e-06, global = 4.43541e-08, cumulative = 0.144334
GAMG:  Solving for p_rgh, Initial residual = 7.74934e-06, Final residual = 9.51126e-08, No Iterations 2
time step continuity errors : sum local = 4.89316e-08, global = 4.2367e-08, cumulative = 0.144334
ExecutionTime = 251.47 s  ClockTime = 446 s

Courant Number mean: 0.00426183 max: 0.663956
Interface Courant Number mean: 0.000162066 max: 0.0143367
deltaT = 0.000416835
Time = 12.6829

PIMPLE: iteration 1
Updating sinCos wave model for patch inlet
MULES: Solving for alpha.water
Phase-1 volume fraction = 0.795953  Min(alpha.water) = -5.26818e-07  Max(alpha.water) = 1.08128
Updating sinCos wave model for patch inlet
MULES: Solving for alpha.water
Phase-1 volume fraction = 0.795951  Min(alpha.water) = -5.26765e-07  Max(alpha.water) = 1.0813
Updating sinCos wave model for patch inlet
MULES: Solving for alpha.water
Phase-1 volume fraction = 0.79595  Min(alpha.water) = -5.26712e-07  Max(alpha.water) = 1.08133
Updating sinCos wave model for patch inlet
Updating shallowWaterAbsorption wave model for patch outlet
DICPCG:  Solving for p_rgh, Initial residual = 0.000699203, Final residual = 4.92562e-06, No Iterations 1
time step continuity errors : sum local = 2.41595e-06, global = 8.13135e-08, cumulative = 0.144334
GAMG:  Solving for p_rgh, Initial residual = 7.45349e-06, Final residual = 3.78969e-08, No Iterations 3
time step continuity errors : sum local = 1.85852e-08, global = 1.60926e-08, cumulative = 0.144334
ExecutionTime = 251.54 s  ClockTime = 446 s

Courant Number mean: 0.00418406 max: 0.669679
Interface Courant Number mean: 0.000158407 max: 0.0142258
deltaT = 0.00040691
Time = 12.6833

PIMPLE: iteration 1
Updating sinCos wave model for patch inlet
MULES: Solving for alpha.water
Phase-1 volume fraction = 0.795949  Min(alpha.water) = -5.2666e-07  Max(alpha.water) = 1.08135
Updating sinCos wave model for patch inlet
MULES: Solving for alpha.water
Phase-1 volume fraction = 0.795948  Min(alpha.water) = -5.26609e-07  Max(alpha.water) = 1.08137
Updating sinCos wave model for patch inlet
MULES: Solving for alpha.water
Phase-1 volume fraction = 0.795947  Min(alpha.water) = -5.26557e-07  Max(alpha.water) = 1.08139
Updating sinCos wave model for patch inlet
Updating shallowWaterAbsorption wave model for patch outlet
DICPCG:  Solving for p_rgh, Initial residual = 0.000680573, Final residual = 5.19906e-06, No Iterations 1
time step continuity errors : sum local = 2.43012e-06, global = 1.32874e-08, cumulative = 0.144334
GAMG:  Solving for p_rgh, Initial residual = 7.62673e-06, Final residual = 8.92819e-08, No Iterations 2
time step continuity errors : sum local = 4.1726e-08, global = 3.3926e-08, cumulative = 0.144334
ExecutionTime = 251.61 s  ClockTime = 446 s

Courant Number mean: 0.00410692 max: 0.667941
Interface Courant Number mean: 0.000154733 max: 0.0142568
deltaT = 0.000397222
Time = 12.6837

PIMPLE: iteration 1
Updating sinCos wave model for patch inlet
MULES: Solving for alpha.water
Phase-1 volume fraction = 0.795946  Min(alpha.water) = -5.26506e-07  Max(alpha.water) = 1.08141
Updating sinCos wave model for patch inlet
MULES: Solving for alpha.water
Phase-1 volume fraction = 0.795944  Min(alpha.water) = -5.26455e-07  Max(alpha.water) = 1.08143
Updating sinCos wave model for patch inlet
MULES: Solving for alpha.water
Phase-1 volume fraction = 0.795943  Min(alpha.water) = -5.26404e-07  Max(alpha.water) = 1.08145
Updating sinCos wave model for patch inlet
Updating shallowWaterAbsorption wave model for patch outlet
DICPCG:  Solving for p_rgh, Initial residual = 0.000664418, Final residual = 5.20407e-06, No Iterations 1
time step continuity errors : sum local = 2.31857e-06, global = 6.71909e-08, cumulative = 0.144334
GAMG:  Solving for p_rgh, Initial residual = 7.77423e-06, Final residual = 3.56809e-08, No Iterations 3
time step continuity errors : sum local = 1.58948e-08, global = 1.36795e-08, cumulative = 0.144334
ExecutionTime = 251.69 s  ClockTime = 447 s

Courant Number mean: 0.00403161 max: 0.662377
Interface Courant Number mean: 0.000150792 max: 0.0141459
deltaT = 0.000387764
Time = 12.6841

PIMPLE: iteration 1
Updating sinCos wave model for patch inlet
MULES: Solving for alpha.water
Phase-1 volume fraction = 0.795942  Min(alpha.water) = -5.29874e-05  Max(alpha.water) = 1.08146
Updating sinCos wave model for patch inlet
MULES: Solving for alpha.water
Phase-1 volume fraction = 0.795941  Min(alpha.water) = -0.000101606  Max(alpha.water) = 1.08148
Updating sinCos wave model for patch inlet
MULES: Solving for alpha.water
Phase-1 volume fraction = 0.79594  Min(alpha.water) = -0.000146173  Max(alpha.water) = 1.0815
Updating sinCos wave model for patch inlet
Updating shallowWaterAbsorption wave model for patch outlet
DICPCG:  Solving for p_rgh, Initial residual = 0.000656539, Final residual = 2.18461e-05, No Iterations 1
time step continuity errors : sum local = 9.28176e-06, global = 3.17857e-08, cumulative = 0.144334
GAMG:  Solving for p_rgh, Initial residual = 2.48707e-05, Final residual = 5.23539e-08, No Iterations 3
time step continuity errors : sum local = 2.22409e-08, global = 1.99471e-08, cumulative = 0.144334
ExecutionTime = 251.76 s  ClockTime = 447 s

Courant Number mean: 0.00396529 max: 0.667092
Interface Courant Number mean: 0.000146865 max: 0.0139193
deltaT = 0.000378532
Time = 12.6845

PIMPLE: iteration 1
Updating sinCos wave model for patch inlet
MULES: Solving for alpha.water
Phase-1 volume fraction = 0.795939  Min(alpha.water) = -0.000264951  Max(alpha.water) = 1.08151
Updating sinCos wave model for patch inlet
MULES: Solving for alpha.water
Phase-1 volume fraction = 0.795938  Min(alpha.water) = -0.000373628  Max(alpha.water) = 1.08153
Updating sinCos wave model for patch inlet
MULES: Solving for alpha.water
Phase-1 volume fraction = 0.795937  Min(alpha.water) = -0.000473031  Max(alpha.water) = 1.08155
Updating sinCos wave model for patch inlet
Updating shallowWaterAbsorption wave model for patch outlet
DICPCG:  Solving for p_rgh, Initial residual = 0.000659365, Final residual = 5.6943e-06, No Iterations 2
time step continuity errors : sum local = 2.30812e-06, global = 1.31237e-07, cumulative = 0.144335
GAMG:  Solving for p_rgh, Initial residual = 1.51026e-05, Final residual = 9.88504e-08, No Iterations 3
time step continuity errors : sum local = 4.00635e-08, global = 3.85761e-08, cumulative = 0.144335
ExecutionTime = 251.83 s  ClockTime = 447 s

Courant Number mean: 0.00392339 max: 0.724981
Interface Courant Number mean: 0.000143538 max: 0.0138296
deltaT = 0.000337387
Time = 12.6848

PIMPLE: iteration 1
Updating sinCos wave model for patch inlet
MULES: Solving for alpha.water
Phase-1 volume fraction = 0.795936  Min(alpha.water) = -0.000637736  Max(alpha.water) = 1.08156
Updating sinCos wave model for patch inlet
MULES: Solving for alpha.water
Phase-1 volume fraction = 0.795935  Min(alpha.water) = -0.000785148  Max(alpha.water) = 1.08158
Updating sinCos wave model for patch inlet
MULES: Solving for alpha.water
Phase-1 volume fraction = 0.795934  Min(alpha.water) = -0.000917065  Max(alpha.water) = 1.08159
Updating sinCos wave model for patch inlet
Updating shallowWaterAbsorption wave model for patch outlet
DICPCG:  Solving for p_rgh, Initial residual = 0.000738607, Final residual = 2.32206e-05, No Iterations 2
time step continuity errors : sum local = 7.49817e-06, global = 4.09348e-07, cumulative = 0.144335
GAMG:  Solving for p_rgh, Initial residual = 8.52271e-05, Final residual = 5.84344e-08, No Iterations 5
time step continuity errors : sum local = 1.88689e-08, global = 1.86243e-08, cumulative = 0.144335
ExecutionTime = 251.9 s  ClockTime = 447 s

Courant Number mean: 0.00364071 max: 0.972142
Interface Courant Number mean: 0.000127575 max: 0.0125833
deltaT = 0.000226603
Time = 12.685

PIMPLE: iteration 1
Updating sinCos wave model for patch inlet
MULES: Solving for alpha.water
Phase-1 volume fraction = 0.795933  Min(alpha.water) = -0.00101373  Max(alpha.water) = 1.0816
Updating sinCos wave model for patch inlet
MULES: Solving for alpha.water
Phase-1 volume fraction = 0.795933  Min(alpha.water) = -0.00109526  Max(alpha.water) = 1.08161
Updating sinCos wave model for patch inlet
MULES: Solving for alpha.water
Phase-1 volume fraction = 0.795932  Min(alpha.water) = -0.00116404  Max(alpha.water) = 1.08162
Updating sinCos wave model for patch inlet
Updating shallowWaterAbsorption wave model for patch outlet
DICPCG:  Solving for p_rgh, Initial residual = 0.000927261, Final residual = 7.17037e-05, No Iterations 9
time step continuity errors : sum local = 1.0466e-05, global = 1.16619e-06, cumulative = 0.144336
[0] #0  Foam::error::printStack(Foam::Ostream&) at ??:?
[0] #1  Foam::sigFpe::sigHandler(int) at ??:?
[0] #2  ? in /lib/x86_64-linux-gnu/libpthread.so.0
[0] #3  Foam::GAMGSolver::scale(Foam::Field<double>&, Foam::Field<double>&, Foam::lduMatrix const&, Foam::FieldField<Foam::Field, double> const&, Foam::UPtrList<Foam::lduInterfaceField const> const&, Foam::Field<double> const&, unsigned char) const at ??:?
[0] #4  Foam::GAMGSolver::Vcycle(Foam::PtrList<Foam::lduMatrix::smoother> const&, Foam::Field<double>&, Foam::Field<double> const&, Foam::Field<double>&, Foam::Field<double>&, Foam::Field<double>&, Foam::Field<double>&, Foam::Field<double>&, Foam::PtrList<Foam::Field<double> >&, Foam::PtrList<Foam::Field<double> >&, unsigned char) const at ??:?
[0] #5  Foam::GAMGSolver::solve(Foam::Field<double>&, Foam::Field<double> const&, unsigned char) const at ??:?
[0] #6  Foam::fvMatrix<double>::solveSegregated(Foam::dictionary const&) at ??:?
[0] #7  Foam::fvMatrix<double>::solveSegregatedOrCoupled(Foam::dictionary const&) at ??:?
[0] #8  Foam::fvMesh::solve(Foam::fvMatrix<double>&, Foam::dictionary const&) const at ??:?
[0] #9  ? at ??:?
[0] #10  __libc_start_main in /lib/x86_64-linux-gnu/libc.so.6
[0] #11  ? at ??:?
[DESKTOP-NUME4RM:11011] *** Process received signal ***
[DESKTOP-NUME4RM:11011] Signal: Floating point exception (8)
[DESKTOP-NUME4RM:11011] Signal code:  (-6)
[DESKTOP-NUME4RM:11011] Failing at address: 0x3e800002b03
[DESKTOP-NUME4RM:11011] [ 0] /lib/x86_64-linux-gnu/libpthread.so.0(+0x153c0)[0x7ff76a46d3c0]
[DESKTOP-NUME4RM:11011] [ 1] /lib/x86_64-linux-gnu/libpthread.so.0(raise+0xcb)[0x7ff76a46d24b]
[DESKTOP-NUME4RM:11011] [ 2] /lib/x86_64-linux-gnu/libpthread.so.0(+0x153c0)[0x7ff76a46d3c0]
[DESKTOP-NUME4RM:11011] [ 3] /opt/OpenFOAM/OpenFOAM-v2006/platforms/linux64Gcc63DPInt32Opt/lib/libOpenFOAM.so(_ZNK4Foam10GAMGSolver5scaleERNS_5FieldIdEES3_RKNS_9lduMatrixERKNS_10FieldFieldIS1_dEERKNS_8UPtrListIKNS_17lduInterfaceFieldEEERKS2_h+0xbf)[0x7ff76b149f6f]
[DESKTOP-NUME4RM:11011] [ 4] /opt/OpenFOAM/OpenFOAM-v2006/platforms/linux64Gcc63DPInt32Opt/lib/libOpenFOAM.so(_ZNK4Foam10GAMGSolver6VcycleERKNS_7PtrListINS_9lduMatrix8smootherEEERNS_5FieldIdEERKS8_S9_S9_S9_S9_S9_RNS1_IS8_EESD_h+0xb04)[0x7ff76b14db44]
[DESKTOP-NUME4RM:11011] [ 5] /opt/OpenFOAM/OpenFOAM-v2006/platforms/linux64Gcc63DPInt32Opt/lib/libOpenFOAM.so(_ZNK4Foam10GAMGSolver5solveERNS_5FieldIdEERKS2_h+0x671)[0x7ff76b14fcc1]
[DESKTOP-NUME4RM:11011] [ 6] /opt/OpenFOAM/OpenFOAM-v2006/platforms/linux64Gcc63DPInt32Opt/lib/libfiniteVolume.so(_ZN4Foam8fvMatrixIdE15solveSegregatedERKNS_10dictionaryE+0x14c)[0x7ff76f257f4c]
[DESKTOP-NUME4RM:11011] [ 7] /opt/OpenFOAM/OpenFOAM-v2006/platforms/linux64Gcc63DPInt32Opt/lib/libfiniteVolume.so(_ZN4Foam8fvMatrixIdE24solveSegregatedOrCoupledERKNS_10dictionaryE+0x3a0)[0x7ff76ec6cd60]
[DESKTOP-NUME4RM:11011] [ 8] /opt/OpenFOAM/OpenFOAM-v2006/platforms/linux64Gcc63DPInt32Opt/lib/libfiniteVolume.so(_ZNK4Foam6fvMesh5solveERNS_8fvMatrixIdEERKNS_10dictionaryE+0xf)[0x7ff76ec15c5f]
[DESKTOP-NUME4RM:11011] [ 9] interFoam[0x447825]
[DESKTOP-NUME4RM:11011] [10] /lib/x86_64-linux-gnu/libc.so.6(__libc_start_main+0xf3)[0x7ff76a28d0b3]
[DESKTOP-NUME4RM:11011] [11] interFoam[0x450204]
[DESKTOP-NUME4RM:11011] *** End of error message ***
--------------------------------------------------------------------------
Primary job  terminated normally, but 1 process returned
a non-zero exit code. Per user-direction, the job has been aborted.
--------------------------------------------------------------------------
--------------------------------------------------------------------------
mpirun noticed that process rank 0 with PID 0 on node DESKTOP-NUME4RM exited on signal 8 (Floating point exception).
--------------------------------------------------------------------------
